#------------------------------------------------------------------------------
#$Date: 2018-01-26 11:08:01 +0200 (Fri, 26 Jan 2018) $
#$Revision: 205739 $
#$URL: file:///home/coder/svn-repositories/cod/cif/1/54/87/1548794.cif $
#------------------------------------------------------------------------------
#
# This file is available in the Crystallography Open Database (COD),
# http://www.crystallography.net/. The original data for this entry
# were provided by IUCr Journals, http://journals.iucr.org/.
#
# The file may be used within the scientific community so long as
# proper attribution is given to the journal article from which the
# data were obtained.
#
data_1548794
loop_
_publ_author_name
'Missioui, Mohcine'
'Mague, Joel T.'
'El Fal, Mohammed'
'Taoufik, Jamal'
'Essassi, El Mokhtar'
'Ramli, Youssef'
_publ_section_title
;
 Ethyl 2-[(3-methylquinoxalin-2-yl)sulfanyl]acetate
;
_journal_coeditor_code           SJ4148
_journal_issue                   12
_journal_name_full               IUCrData
_journal_page_first              x171763
_journal_paper_doi               10.1107/S2414314617017631
_journal_volume                  2
_journal_year                    2017
_chemical_formula_iupac          'C13 H14 N2 O2 S'
_chemical_formula_moiety         'C13 H14 N2 O2 S'
_chemical_formula_sum            'C13 H14 N2 O2 S'
_chemical_formula_weight         262.32
_chemical_name_systematic
;
Ethyl 2-[(3-methylquinoxalin-2-yl)sulfanyl]acetate
;
_space_group_crystal_system      triclinic
_space_group_IT_number           2
_space_group_name_Hall           '-P 1'
_space_group_name_H-M_alt        'P -1'
_symmetry_space_group_name_Hall  '-P 1'
_symmetry_space_group_name_H-M   'P -1'
_atom_sites_solution_hydrogens   difmap
_atom_sites_solution_primary     direct
_atom_sites_solution_secondary   difmap
_audit_creation_method           SHELXL-2016/6
_cell_angle_alpha                93.4120(10)
_cell_angle_beta                 94.5640(10)
_cell_angle_gamma                103.0500(10)
_cell_formula_units_Z            2
_cell_length_a                   4.8078(3)
_cell_length_b                   7.7314(4)
_cell_length_c                   17.8011(10)
_cell_measurement_reflns_used    7128
_cell_measurement_temperature    100(2)
_cell_measurement_theta_max      29.1974
_cell_measurement_theta_min      2.3028
_cell_volume                     640.50(6)
_computing_cell_refinement
;
<i>SAINT</i> (Bruker, 2016)
;
_computing_data_collection
;
<i>APEX3</i> (Bruker, 2016)
;
_computing_data_reduction
;
<i>SAINT</i> (Bruker, 2016)
;
_computing_molecular_graphics
;
<i>DIAMOND</i> (Brandenburg & Putz, 2012)
;
_computing_publication_material
;
<i>SHELXTL</i> (Sheldrick, 2008)
;
_computing_structure_refinement
;
<i>SHELXL2016/6</i> (Sheldrick, 2015<i>b</i>)
;
_computing_structure_solution
;
<i>SHELXT</i> (Sheldrick, 2015<i>a</i>)
;
_diffrn_ambient_temperature      100(2)
_diffrn_detector_area_resol_mean 8.3333
_diffrn_measured_fraction_theta_full 0.993
_diffrn_measured_fraction_theta_max 0.984
_diffrn_measurement_device_type  'Bruker SMART APEX CCD'
_diffrn_measurement_method       '\f and \w scans'
_diffrn_radiation_monochromator  graphite
_diffrn_radiation_type           MoK\a
_diffrn_radiation_wavelength     0.71073
_diffrn_reflns_av_R_equivalents  0.0223
_diffrn_reflns_limit_h_max       6
_diffrn_reflns_limit_h_min       -6
_diffrn_reflns_limit_k_max       10
_diffrn_reflns_limit_k_min       -10
_diffrn_reflns_limit_l_max       24
_diffrn_reflns_limit_l_min       -24
_diffrn_reflns_number            12471
_diffrn_reflns_theta_full        28.500
_diffrn_reflns_theta_max         29.229
_diffrn_reflns_theta_min         2.303
_exptl_absorpt_coefficient_mu    0.248
_exptl_absorpt_correction_T_max  0.97
_exptl_absorpt_correction_T_min  0.90
_exptl_absorpt_correction_type   multi-scan
_exptl_absorpt_process_details
;
(<i>SADABS</i>; Bruker, 2016)
;
_exptl_crystal_colour            colourless
_exptl_crystal_density_diffrn    1.360
_exptl_crystal_density_method    'not measured'
_exptl_crystal_description       block
_exptl_crystal_F_000             276
_exptl_crystal_size_max          0.235
_exptl_crystal_size_mid          0.186
_exptl_crystal_size_min          0.140
_refine_diff_density_max         0.512
_refine_diff_density_min         -0.235
_refine_ls_extinction_method     none
_refine_ls_goodness_of_fit_ref   1.130
_refine_ls_hydrogen_treatment    refall
_refine_ls_matrix_type           full
_refine_ls_number_parameters     219
_refine_ls_number_reflns         3429
_refine_ls_number_restraints     0
_refine_ls_restrained_S_all      1.130
_refine_ls_R_factor_all          0.0403
_refine_ls_R_factor_gt           0.0361
_refine_ls_shift/su_max          0.000
_refine_ls_shift/su_mean         0.000
_refine_ls_structure_factor_coef Fsqd
_refine_ls_weighting_details
'w=1/[\s^2^(Fo^2^)+(0.0715P)^2^+0.0147P] where P=(Fo^2^+2Fc^2^)/3'
_refine_ls_weighting_scheme      calc
_refine_ls_wR_factor_gt          0.1037
_refine_ls_wR_factor_ref         0.1057
_reflns_number_gt                2989
_reflns_number_total             3429
_reflns_threshold_expression     'I > 2\s(I)'
_cod_data_source_file            sj4148sup1.cif
_cod_data_source_block           I
_cod_database_code               1548794
_shelx_space_group_comment
;
The symmetry employed for this shelxl refinement is uniquely defined
by the following loop, which should always be used as a source of
symmetry information in preference to the above space-group names.
They are only intended as comments.
;
_shelx_estimated_absorpt_t_min   0.944
_shelx_estimated_absorpt_t_max   0.966
_shelx_hkl_file
;
  -1   0   0 1715.33   43.60
  -1   0   0 1729.83   43.70
   1   0   0 1738.03   43.70
   1   0   0 1713.53   43.60
  -2   0   0    2.70    0.60
  -2   0   0    2.70    0.50
   2   0   0    2.60    0.70
   2   0   0    3.80    0.50
   2   0   0    3.50    0.60
  -3   0   0    8.10    1.20
  -3   0   0    5.50    0.70
   3   0   0    8.00    0.90
   3   0   0    6.90    1.20
  -4   0   0    9.60    1.50
  -4   0   0    8.70    1.00
   4   0   0    9.80    1.20
   4   0   0    7.40    1.60
  -5   0   0   46.60    3.40
  -5   0   0   53.69    2.60
   5   0   0   58.69    3.10
   5   0   0   54.59    4.00
  -6   0   0   15.90    1.90
  -6   0   0   14.10    3.20
   6   0   0   12.10    2.30
   6   0   0   16.60    3.50
   6  -1   0    3.10    2.00
   6  -1   0    3.10    2.90
  -6   1   0    3.40    1.50
  -6   1   0    3.80    2.80
   5  -1   0  122.19    4.60
   5  -1   0  124.29    5.50
  -5   1   0  126.99    5.30
  -5   1   0  129.69    4.30
   4  -1   0   28.20    2.30
   4  -1   0   23.30    1.70
  -4   1   0   26.60    2.20
  -4   1   0   25.20    1.60
   3  -1   0  176.08    5.00
   3  -1   0  173.78    5.40
   3  -1   0  167.68    5.30
  -3   1   0  171.58    5.50
  -3   1   0  174.18    4.90
   2  -1   0   11.00    0.70
   2  -1   0   11.00    0.80
   2  -1   0   10.00    0.90
  -2   1   0    9.80    0.70
  -2   1   0   10.80    1.00
  -2   1   0   12.00    0.50
   1  -1   0   36.60    1.10
   1  -1   0   36.90    1.20
  -1   1   0   37.50    1.10
  -1   1   0   34.50    1.30
  -1   1   0   34.90    1.10
   0  -1   0  143.79    3.80
   0  -1   0  150.08    3.80
   0  -1   0  148.79    3.80
   0  -1   0  145.39    3.80
   0   1   0  149.88    3.80
   0   1   0  148.49    3.90
   0   1   0  136.19    3.80
   0   1   0  142.19    3.80
  -1  -1   0  539.35   13.70
  -1  -1   0  516.75   13.80
  -1  -1   0  534.35   13.80
   1   1   0  551.54   13.70
   1   1   0  526.25   13.70
   1   1   0  538.75   13.90
   1   1   0  539.65   13.80
  -2  -1   0    3.60    0.70
  -2  -1   0    3.50    1.00
  -2  -1   0    3.10    0.50
   2   1   0    2.90    0.60
   2   1   0    4.40    0.60
   2   1   0    4.20    0.50
   2   1   0    3.00    0.70
  -3  -1   0    0.00    0.80
  -3  -1   0    0.20    0.60
   3   1   0    0.90    1.00
   3   1   0    0.00    0.60
  -4  -1   0   26.50    2.50
  -4  -1   0   30.50    1.90
   4   1   0   26.30    2.00
   4   1   0   27.40    2.70
  -5  -1   0  234.68    7.10
  -5  -1   0  234.98    8.20
   5   1   0  229.98    8.20
   5   1   0  239.88    7.50
  -6  -1   0    3.10    1.70
  -6  -1   0    4.50    3.10
   6   1   0    5.80    3.30
   6  -2   0  248.18    9.00
   6  -2   0  234.98    7.80
  -6   2   0  228.88    7.00
  -6   2   0  220.28    8.60
   5  -2   0  204.88    7.30
   5  -2   0  208.48    6.50
  -5   2   0  199.88    6.10
  -5   2   0  209.08    7.40
   4  -2   0   10.60    1.60
   4  -2   0    8.70    1.10
  -4   2   0   12.40    1.70
  -4   2   0   13.10    1.30
   3  -2   0  462.55   12.30
   3  -2   0  456.15   12.60
  -3   2   0  478.35   12.00
  -3   2   0  455.95   12.80
  -3   2   0  467.05   12.20
   2  -2   0    0.20    0.50
   2  -2   0    0.10    0.40
   2  -2   0    0.00    0.50
  -2   2   0    0.30    0.40
  -2   2   0    0.10    0.40
  -2   2   0    0.10    0.50
   1  -2   0  642.94   16.10
   1  -2   0  639.54   16.20
   1  -2   0  618.74   16.10
  -1   2   0  623.44   16.10
  -1   2   0  630.64   16.30
  -1   2   0  628.24   16.20
   0  -2   0 3694.13   89.99
   0  -2   0 3627.34   90.29
   0  -2   0 3506.65   89.89
   0  -2   0 3539.45   89.99
   0   2   0 3503.15   89.99
   0   2   0 3399.46   89.69
   0   2   0 3552.04   89.99
   0   2   0 3619.74   90.29
   0   2   0 3562.04   89.79
  -1  -2   0  997.30   25.50
  -1  -2   0 1011.60   25.50
  -1  -2   0  980.90   25.60
   1   2   0  983.00   25.50
   1   2   0 1006.80   25.60
   1   2   0 1012.30   25.60
   1   2   0 1009.00   25.70
  -2  -2   0 2703.83   68.79
  -2  -2   0 2727.93   68.69
  -2  -2   0 2612.84   68.99
   2   2   0 2744.43   69.19
   2   2   0 2743.83   68.69
   2   2   0 2786.92   68.79
   2   2   0 2662.03   68.79
  -3  -2   0    8.30    1.00
  -3  -2   0    8.10    1.30
   3   2   0    9.40    1.10
   3   2   0    8.40    1.30
  -4  -2   0   37.90    2.30
  -4  -2   0   43.60    2.90
   4   2   0   44.20    3.00
   4   2   0   44.10    2.50
  -5  -2   0    1.10    2.00
  -5  -2   0    1.20    1.30
   5   2   0    1.60    1.60
   5   2   0    1.60    2.50
   6  -3   0    1.50    2.60
   6  -3   0    0.60    1.80
  -6   3   0    0.30    1.30
  -6   3   0    0.30    2.70
   5  -3   0    7.10    1.50
   5  -3   0    5.80    2.00
  -5   3   0    8.50    1.20
  -5   3   0    7.40    2.20
   4  -3   0   34.90    2.50
   4  -3   0   34.20    2.00
  -4   3   0   35.90    2.50
  -4   3   0   37.00    1.80
   3  -3   0  387.86   10.60
   3  -3   0  390.86   10.80
  -3   3   0  420.36   10.50
  -3   3   0  380.36   10.50
  -3   3   0  383.86   11.10
   2  -3   0    3.40    0.70
   2  -3   0    3.80    0.60
   2  -3   0    2.90    0.60
  -2   3   0    3.10    0.50
  -2   3   0    3.20    0.80
  -2   3   0    2.30    0.60
   1  -3   0  815.22   21.20
   1  -3   0  860.51   21.30
   1  -3   0  847.92   21.10
  -1   3   0  829.62   21.40
  -1   3   0  806.22   21.40
  -1   3   0  812.72   21.20
  -1   3   0  821.02   21.20
   0  -3   0  752.32   19.60
   0  -3   0  757.92   19.60
   0  -3   0  766.32   19.60
   0   3   0  775.22   19.60
   0   3   0  753.42   19.80
   0   3   0  753.22   19.60
   0   3   0  775.82   19.60
   0   3   0  768.42   19.70
  -1  -3   0   14.80    1.00
  -1  -3   0   13.00    1.00
  -1  -3   0   11.20    1.00
   1   3   0   11.90    1.00
   1   3   0   13.10    1.10
   1   3   0   13.80    1.00
   1   3   0   14.00    1.00
  -2  -3   0   20.90    1.50
  -2  -3   0   18.90    1.30
   2   3   0   17.90    1.50
   2   3   0   19.60    1.40
   2   3   0   16.00    1.40
   2   3   0   18.20    1.50
  -3  -3   0    4.40    1.30
  -3  -3   0    5.70    1.00
   3   3   0    4.20    1.10
   3   3   0    3.80    1.40
  -4  -3   0   32.50    2.90
  -4  -3   0   33.10    2.30
   4   3   0   35.00    2.60
   4   3   0   30.30    3.10
  -5  -3   0    0.60    1.50
   5   3   0   -0.60    2.60
   6  -4   0   66.29    4.10
  -6   4   0   64.99    3.30
  -6   4   0   80.49    5.40
   5  -4   0  169.68    5.70
  -5   4   0  167.58    5.30
  -5   4   0  177.68    6.80
   4  -4   0    2.30    1.30
   4  -4   0    3.80    1.00
  -4   4   0    4.00    0.90
  -4   4   0    5.20    1.60
   3  -4   0   32.40    1.90
   3  -4   0   36.80    1.80
  -3   4   0   33.20    2.20
  -3   4   0   34.50    1.60
  -3   4   0   35.20    1.80
   2  -4   0   29.40    1.60
   2  -4   0   31.60    1.40
   2  -4   0   32.10    1.50
  -2   4   0   35.80    1.70
  -2   4   0   29.80    1.40
  -2   4   0   27.30    1.70
  -2   4   0   33.70    1.50
   1  -4   0  125.99    3.70
   1  -4   0  122.19    3.40
   1  -4   0  124.49    3.70
  -1   4   0  119.69    3.60
  -1   4   0  116.79    3.80
  -1   4   0  121.89    3.90
  -1   4   0  129.99    3.70
   0  -4   0   11.70    1.00
   0  -4   0   10.20    1.00
   0  -4   0   10.90    1.00
   0   4   0    8.70    1.00
   0   4   0    9.80    1.00
   0   4   0    9.50    0.90
   0   4   0    8.70    0.90
   0   4   0    7.20    0.90
  -1  -4   0  116.29    3.60
  -1  -4   0  114.09    3.60
  -1  -4   0  114.99    3.60
   1   4   0  111.09    3.60
   1   4   0  106.69    3.80
   1   4   0  120.29    3.60
   1   4   0  113.99    3.80
  -2  -4   0  143.59    4.70
  -2  -4   0  153.88    4.90
   2   4   0  162.08    4.90
   2   4   0  152.68    4.90
   2   4   0  156.18    4.80
   2   4   0  155.28    5.20
  -3  -4   0   46.20    2.90
  -3  -4   0   47.80    2.50
   3   4   0   50.39    3.20
   3   4   0   49.80    2.70
  -4  -4   0   16.80    1.80
   4   4   0   14.90    2.50
  -5  -4   0   13.90    2.20
   5   4   0   15.10    3.60
   6  -5   0  180.98    6.70
  -6   5   0  176.38    5.70
  -6   5   0  159.98    7.60
   5  -5   0  193.38    6.30
  -5   5   0  195.98    5.90
  -5   5   0  174.18    7.30
   4  -5   0   62.99    2.90
  -4   5   0   64.19    2.70
  -4   5   0   63.49    3.70
   3  -5   0  243.98    7.10
  -3   5   0  240.68    7.50
  -3   5   0  248.48    6.90
  -3   5   0  243.98    7.20
   2  -5   0   37.80    1.90
  -2   5   0   38.70    1.80
  -2   5   0   35.30    2.00
  -2   5   0   38.10    2.00
   1  -5   0   64.99    2.40
   1  -5   0   61.29    2.40
   1  -5   0   64.99    2.20
  -1   5   0   68.19    2.80
  -1   5   0   68.09    2.10
  -1   5   0   66.39    2.40
  -1   5   0   60.99    2.30
  -1   5   0   60.59    2.50
   0  -5   0  117.99    3.80
   0  -5   0  119.69    3.80
   0  -5   0  116.49    3.80
   0   5   0  112.99    3.80
   0   5   0  116.59    3.80
   0   5   0  125.39    3.70
   0   5   0  109.29    4.00
  -1  -5   0   82.59    3.10
  -1  -5   0   90.09    3.20
   1   5   0   91.09    3.20
   1   5   0   86.19    3.40
   1   5   0   87.89    3.20
   1   5   0   93.09    3.30
  -2  -5   0   71.29    2.90
   2   5   0   66.89    3.10
   2   5   0   71.09    3.30
  -3  -5   0   12.30    1.60
   3   5   0   11.40    2.10
  -4  -5   0    0.50    1.50
   4   5   0    0.60    2.40
  -6   6   0   34.40    4.30
  -6   6   0   34.20    3.60
   5  -6   0   26.10    2.50
  -5   6   0   23.60    3.10
  -5   6   0   23.20    2.30
   4  -6   0  104.89    4.20
  -4   6   0  111.49    5.00
  -4   6   0  109.09    3.90
   3  -6   0    2.00    1.10
  -3   6   0    2.40    0.90
  -3   6   0    1.90    1.40
  -3   6   0    2.70    1.30
   2  -6   0  318.67    9.30
  -2   6   0  334.17    9.70
  -2   6   0  336.77    9.20
  -2   6   0  339.67    9.70
   1  -6   0    2.80    0.90
   1  -6   0    1.50    1.00
  -1   6   0    2.70    1.10
  -1   6   0    2.50    1.10
  -1   6   0    1.50    0.80
   0  -6   0   39.60    2.10
   0  -6   0   37.70    2.20
   0  -6   0   36.00    2.20
   0   6   0   35.60    2.30
   0   6   0   33.20    2.00
  -1  -6   0  146.69    5.10
   1   6   0  156.68    5.20
   1   6   0  159.78    5.20
   1   6   0  169.88    5.60
  -2  -6   0   12.70    1.70
   2   6   0   16.20    2.10
   2   6   0   13.90    2.00
  -3  -6   0   52.29    3.20
   3   6   0   50.09    3.90
  -4  -6   0   57.69    4.00
   4   6   0   51.89    5.10
   5  -7   0  217.48    7.50
  -5   7   0  219.78    6.80
  -5   7   0  215.08    8.30
   4  -7   0  151.58    5.40
  -4   7   0  147.79    5.00
  -4   7   0  142.89    5.90
   3  -7   0    9.30    1.60
  -3   7   0    8.80    1.90
  -3   7   0   10.50    1.80
  -3   7   0    7.70    1.30
   2  -7   0   67.39    3.10
  -2   7   0   69.89    3.50
  -2   7   0   71.79    2.90
  -2   7   0   66.39    3.40
   1  -7   0  671.73   18.10
   1  -7   0  647.94   18.30
  -1   7   0  683.83   18.40
  -1   7   0  652.23   17.80
   0  -7   0   10.90    1.50
   0   7   0    9.60    1.70
   0   7   0   12.40    1.50
  -1  -7   0   52.09    3.00
   1   7   0   50.49    3.40
  -2  -7   0   17.00    2.00
   2   7   0   18.10    2.50
  -3  -7   0   -0.40    1.90
  -5   8   0    3.10    3.00
  -5   8   0    2.40    1.70
  -4   8   0   24.50    3.20
  -4   8   0   25.00    2.60
  -3   8   0   28.20    3.10
  -3   8   0   27.80    3.20
  -3   8   0   24.10    2.30
  -2   8   0   67.69    3.20
  -2   8   0   65.49    3.90
  -1   8   0   65.19    3.20
  -1   8   0   54.19    3.70
   0   8   0  131.49    5.50
   0   8   0  135.79    5.00
  -1  -8   0   10.90    2.40
   1   8   0    8.90    2.10
  -2  -8   0    3.40    2.00
   2   8   0    2.40    2.40
  -3  -8   0    7.00    2.60
  -4   9   0   50.99    3.60
  -3   9   0    5.50    2.40
  -3   9   0    6.40    1.70
  -2   9   0   61.49    3.50
  -2   9   0   53.69    4.30
  -1   9   0    1.10    1.70
  -1   9   0    0.40    2.20
   0   9   0    7.90    2.30
   0   9   0   13.40    2.50
   1   9   0  367.66   12.10
  -2  -9   0   25.00    3.60
   2   9   0   22.40    4.00
  -3  10   0    4.10    2.20
  -3  10   0    2.60    3.00
  -2  10   0    5.80    2.20
  -2  10   0    4.20    2.80
  -1  10   0   32.90    3.80
  -1  10   0   33.30    3.00
   0  10   0   23.30    3.50
   0  10  -1   21.00    3.70
   0  10  -1   24.20    3.00
  -1  10  -1   46.40    4.90
  -1  10  -1   45.90    3.90
  -2  10  -1   29.80    2.80
  -2  10  -1   29.50    3.70
  -3  10  -1   26.80    3.80
  -3  10  -1   26.30    2.70
   2   9  -1   36.10    4.20
   1   9  -1   10.40    3.00
   0   9  -1   26.70    3.00
   0   9  -1   27.40    2.50
  -1   9  -1   31.80    3.70
  -1   9  -1   35.60    3.10
  -2   9  -1   40.20    3.50
  -2   9  -1   45.50    3.10
  -3   9  -1    1.50    2.20
  -3   9  -1    0.50    1.50
  -4   9  -1    4.80    3.40
  -4   9  -1    6.10    1.80
  -3  -8   1    3.50    2.60
   2   8  -1   30.20    3.50
  -2  -8   1   33.90    3.40
   1   8  -1  112.59    5.30
   0   8  -1  389.86   11.00
   0   8  -1  370.66   11.60
  -1   8  -1    3.20    1.40
  -1   8  -1    4.90    1.90
  -2   8  -1    1.60    1.60
  -2   8  -1    1.10    1.20
   2  -8   1    3.40    2.40
  -3   8  -1  123.19    4.50
  -3   8  -1  125.19    5.40
  -3   8  -1  123.09    5.30
   3  -8   1  119.29    4.80
  -4   8  -1   83.59    3.60
  -4   8  -1   79.49    5.00
   4  -8   1   81.69    4.30
  -5   8  -1   89.69    6.10
  -5   8  -1   76.29    3.80
  -3  -7   1   67.49    4.20
   2   7  -1  136.29    5.60
  -2  -7   1  126.49    5.00
   1   7  -1  117.89    4.50
   1   7  -1  119.69    4.80
  -1  -7   1  124.19    4.60
   0   7  -1    0.60    1.10
   0   7  -1   -0.20    1.40
  -1   7  -1   -0.50    1.30
  -1   7  -1    1.00    1.30
  -1   7  -1    1.40    1.10
   1  -7   1    1.40    1.20
   1  -7   1    1.70    1.30
  -2   7  -1  201.68    6.60
  -2   7  -1  189.18    6.50
  -2   7  -1  190.88    5.90
   2  -7   1  192.68    6.10
  -3   7  -1   27.20    2.80
  -3   7  -1   31.50    2.80
  -3   7  -1   28.90    2.10
   3  -7   1   28.60    2.40
  -4   7  -1   65.99    3.00
  -4   7  -1   74.09    4.50
   4  -7   1   71.49    3.60
  -5   7  -1    3.30    1.40
  -5   7  -1    1.70    2.40
   5  -7   1    3.80    2.00
   4   6  -1    3.40    2.90
  -4  -6   1    3.00    2.10
   3   6  -1   17.00    2.50
  -3  -6   1   17.70    2.10
   2   6  -1    0.60    1.50
   2   6  -1    1.20    1.50
  -2  -6   1    1.40    1.20
   1   6  -1    0.40    1.10
   1   6  -1    0.70    1.10
   1   6  -1    1.90    1.10
  -1  -6   1    1.90    1.30
  -1  -6   1    0.90    1.10
   0   6  -1  110.09    4.10
   0   6  -1  104.69    3.70
   0  -6   1  110.39    3.80
   0  -6   1  110.29    3.90
   0  -6   1   95.09    3.70
  -1   6  -1  197.28    6.40
  -1   6  -1  198.78    6.20
  -1   6  -1  198.38    5.90
   1  -6   1  195.48    5.90
  -2   6  -1 1040.50   27.90
  -2   6  -1 1065.69   27.40
  -2   6  -1 1065.39   27.90
   2  -6   1 1057.29   27.50
  -3   6  -1  153.18    5.40
  -3   6  -1  138.69    4.40
  -3   6  -1  134.39    4.90
   3  -6   1  132.69    4.60
  -4   6  -1   35.80    2.10
  -4   6  -1   37.10    3.40
   4  -6   1   37.70    2.60
  -5   6  -1   99.99    5.30
  -5   6  -1  107.39    3.90
   5  -6   1  116.19    4.70
  -6   6  -1   82.19    3.90
   6  -6   1   94.59    5.10
   4   5  -1   15.80    2.90
  -4  -5   1   18.30    2.20
   3   5  -1    1.50    1.50
  -3  -5   1    2.20    1.30
   2   5  -1   24.50    2.20
   2   5  -1   26.30    2.20
   2   5  -1   23.90    2.00
  -2  -5   1   27.40    2.00
  -2  -5   1   28.00    2.30
   1   5  -1   74.29    2.90
   1   5  -1   84.29    3.00
   1   5  -1   78.89    3.00
   1   5  -1   68.49    3.00
  -1  -5   1   81.69    3.00
  -1  -5   1   71.49    2.90
  -1  -5   1   74.89    2.90
   0   5  -1  149.99    4.40
   0   5  -1  150.48    4.20
   0   5  -1  130.89    4.70
   0   5  -1  137.09    4.40
   0  -5   1  142.69    4.50
   0  -5   1  144.49    4.40
   0  -5   1  144.49    4.40
  -1   5  -1  248.48    7.10
  -1   5  -1  234.78    7.00
  -1   5  -1  228.18    6.70
   1  -5   1  235.18    6.70
   1  -5   1  250.67    6.80
  -2   5  -1    9.20    1.20
  -2   5  -1   11.40    1.30
  -2   5  -1   10.30    1.10
   2  -5   1   10.40    1.00
  -3   5  -1    0.70    1.20
  -3   5  -1    0.50    0.90
  -3   5  -1    1.40    0.70
   3  -5   1    1.50    0.90
  -4   5  -1    1.60    1.40
  -4   5  -1    2.20    0.90
   4  -5   1    2.70    1.10
  -5   5  -1   71.29    4.60
  -5   5  -1   73.59    3.00
   5  -5   1   79.89    3.70
  -6   5  -1   24.10    3.70
  -6   5  -1   24.40    2.40
   6  -5   1   20.00    2.60
   5   4  -1   45.70    4.50
  -5  -4   1   41.50    3.50
   4   4  -1  245.88    8.70
  -4  -4   1  260.57    7.80
   3   4  -1   -0.20    1.40
   3   4  -1    0.20    1.00
  -3  -4   1    0.10    1.30
  -3  -4   1    0.00    1.00
   2   4  -1   28.10    2.00
   2   4  -1   29.50    1.90
   2   4  -1   30.70    1.90
   2   4  -1   28.10    1.90
  -2  -4   1   28.00    1.80
  -2  -4   1   33.30    2.10
   1   4  -1   31.80    1.60
   1   4  -1   30.00    1.60
   1   4  -1   23.80    1.50
   1   4  -1   25.90    1.70
  -1  -4   1   29.80    1.60
  -1  -4   1   28.70    1.50
   0   4  -1   26.60    1.30
   0   4  -1   25.40    1.20
   0   4  -1   30.00    1.40
   0   4  -1   20.90    1.40
   0   4  -1   24.90    1.40
   0  -4   1   24.50    1.30
   0  -4   1   26.20    1.50
  -1   4  -1   15.60    1.20
  -1   4  -1   13.90    1.00
  -1   4  -1   13.60    1.20
  -1   4  -1   16.30    1.10
   1  -4   1   15.50    0.80
   1  -4   1   18.20    1.10
   1  -4   1   16.90    1.10
  -2   4  -1  265.37    7.80
  -2   4  -1  274.77    7.60
  -2   4  -1  256.37    7.30
   2  -4   1  275.77    7.50
   2  -4   1  270.27    7.40
   2  -4   1  278.17    7.20
  -3   4  -1  265.27    8.20
  -3   4  -1  279.17    7.60
  -3   4  -1  267.37    7.50
   3  -4   1  266.87    7.60
   3  -4   1  282.27    7.60
  -4   4  -1  266.37    7.50
  -4   4  -1  270.87    8.60
   4  -4   1  266.07    7.70
   4  -4   1  264.67    8.10
  -5   4  -1   97.09    3.40
  -5   4  -1   95.69    4.70
   5  -4   1   88.89    3.90
  -6   4  -1   63.49    5.30
  -6   4  -1   56.69    2.90
   6  -4   1   59.39    4.00
   5   3  -1    7.70    2.60
  -5  -3   1   13.00    2.70
  -5  -3   1   12.50    1.90
   4   3  -1    0.30    1.30
   4   3  -1    0.70    1.80
  -4  -3   1    0.00    1.50
  -4  -3   1    0.80    1.20
   3   3  -1    7.70    1.40
  -3  -3   1    9.30    1.20
  -3  -3   1    9.20    1.50
   2   3  -1  307.17    8.70
   2   3  -1  304.37    8.30
   2   3  -1  301.87    8.40
   2   3  -1  297.47    8.40
  -2  -3   1  301.07    8.30
  -2  -3   1  293.97    8.30
  -2  -3   1  307.07    8.50
   1   3  -1  314.27    8.70
   1   3  -1  333.47    8.90
   1   3  -1  321.67    8.70
   1   3  -1  320.47    8.90
  -1  -3   1  340.27    8.80
  -1  -3   1  327.97    8.80
  -1  -3   1  326.27    8.80
   0   3  -1   71.09    2.50
   0   3  -1   74.69    2.20
   0   3  -1   69.99    2.30
   0   3  -1   74.29    2.40
   0   3  -1   73.99    2.30
   0  -3   1   73.69    2.30
   0  -3   1   76.29    2.40
   0  -3   1   73.59    2.30
  -1   3  -1   67.49    2.10
  -1   3  -1   67.79    2.40
  -1   3  -1   71.09    2.40
   1  -3   1   70.39    2.00
   1  -3   1   72.69    2.20
   1  -3   1   70.59    2.20
  -2   3  -1  171.68    4.90
  -2   3  -1  180.48    5.00
  -2   3  -1  176.98    5.40
   2  -3   1  185.88    5.00
   2  -3   1  168.18    5.00
   2  -3   1  175.68    4.90
  -3   3  -1  112.59    3.30
  -3   3  -1  102.09    4.00
   3  -3   1  108.49    3.70
   3  -3   1  112.09    3.40
  -4   3  -1   69.19    2.50
  -4   3  -1   67.49    3.50
   4  -3   1   71.99    2.80
   4  -3   1   67.19    3.20
  -5   3  -1  153.18    6.30
  -5   3  -1  155.98    4.90
   5  -3   1  149.19    5.20
   5  -3   1  167.08    6.10
  -6   3  -1   61.79    5.10
   6  -3   1   55.09    3.70
   6  -3   1   62.09    5.80
  -6  -2   1    2.90    3.40
   5   2  -1    0.70    2.40
  -5  -2   1    1.30    2.20
  -5  -2   1    0.90    1.40
   4   2  -1    8.00    1.40
   4   2  -1    9.20    2.00
  -4  -2   1    9.00    1.30
  -4  -2   1    5.60    1.70
   3   2  -1   54.89    2.30
   3   2  -1   48.70    2.60
  -3  -2   1   48.30    2.20
  -3  -2   1   56.59    2.60
   2   2  -1    6.20    1.00
   2   2  -1    5.90    0.80
   2   2  -1    6.20    0.80
   2   2  -1    5.70    0.70
  -2  -2   1    6.00    0.70
  -2  -2   1    4.90    0.80
  -2  -2   1    8.20    0.80
   1   2  -1  395.16   10.40
   1   2  -1  384.16   10.50
   1   2  -1  404.16   10.40
   1   2  -1  401.56   10.40
  -1  -2   1  397.06   10.50
  -1  -2   1  394.76   10.40
  -1  -2   1  397.16   10.40
   0   2  -1   92.59    2.50
   0   2  -1   88.39    2.70
   0   2  -1   87.49    2.70
   0   2  -1   88.59    2.60
   0   2  -1   92.59    2.60
   0  -2   1   93.59    2.70
   0  -2   1   92.59    2.60
   0  -2   1   92.89    2.60
  -1   2  -1    0.60    0.40
  -1   2  -1    0.30    0.20
  -1   2  -1    0.20    0.30
   1  -2   1    0.30    0.20
   1  -2   1    0.60    0.30
  -2   2  -1   39.10    1.80
  -2   2  -1   38.70    1.40
  -2   2  -1   43.60    1.40
   2  -2   1   40.00    1.40
   2  -2   1   36.40    1.60
  -3   2  -1   14.40    1.00
  -3   2  -1   17.40    1.70
   3  -2   1   13.10    1.40
   3  -2   1   15.90    1.10
  -4   2  -1  173.58    6.20
  -4   2  -1  190.48    5.40
   4  -2   1  193.98    6.20
   4  -2   1  187.18    5.60
  -5   2  -1  136.19    5.60
  -5   2  -1  119.39    4.10
   5  -2   1  130.89    4.60
   5  -2   1  135.49    5.50
  -6   2  -1   -0.70    2.60
  -6   2  -1    0.20    1.20
   6  -2   1    0.30    1.80
   6  -2   1    1.10    2.70
   6   1  -1   14.20    3.30
  -6  -1   1   19.00    2.20
  -6  -1   1   12.10    3.10
   5   1  -1  217.68    6.90
   5   1  -1  209.08    7.90
  -5  -1   1  210.98    6.60
  -5  -1   1  216.38    7.70
   4   1  -1    7.60    1.30
   4   1  -1    9.30    1.70
  -4  -1   1    7.10    1.50
  -4  -1   1    9.00    1.20
   3   1  -1    7.40    1.20
   3   1  -1   10.00    1.20
   3   1  -1    9.30    1.00
  -3  -1   1    6.40    0.90
  -3  -1   1    7.30    1.20
   2   1  -1   59.99    1.90
   2   1  -1   59.59    2.10
   2   1  -1   59.79    2.30
   2   1  -1   62.79    2.10
  -2  -1   1   57.69    2.00
  -2  -1   1   57.39    2.30
  -2  -1   1   62.99    2.10
   1   1  -1 5846.21  142.89
   1   1  -1 5772.82  143.09
   1   1  -1 5666.33  142.79
   1   1  -1 5589.34  143.59
  -1  -1   1 5599.64  142.99
  -1  -1   1 5599.74  142.79
  -1  -1   1 5405.06  142.39
   0   1  -1 4110.29  101.49
   0   1  -1 4107.69  101.59
   0   1  -1 3991.90  101.99
   0  -1   1 3884.11  101.39
   0  -1   1 3962.60  101.99
  -1   1  -1  379.76    9.80
  -1   1  -1  373.46    9.60
  -1   1  -1  384.56    9.60
   1  -1   1  355.86    9.60
   1  -1   1  374.46    9.70
  -2   1  -1 1085.89   27.80
  -2   1  -1 1083.89   28.20
   2  -1   1 1103.09   27.80
   2  -1   1 1090.49   28.10
  -3   1  -1   40.10    2.10
  -3   1  -1   35.30    1.50
   3  -1   1   35.70    2.00
   3  -1   1   41.60    1.70
  -4   1  -1   17.00    1.30
  -4   1  -1   17.20    2.00
   4  -1   1   17.60    1.60
   4  -1   1   15.60    1.90
  -5   1  -1   19.90    2.60
  -5   1  -1   22.50    1.80
   5  -1   1   19.70    2.60
   5  -1   1   17.20    1.80
  -6   1  -1    9.10    2.90
  -6   1  -1    9.60    1.50
   6  -1   1    9.70    2.80
   6  -1   1   10.40    2.10
   6   0  -1    6.10    3.10
  -6   0   1    9.50    3.10
  -6   0   1   10.40    1.80
   5   0  -1    0.60    1.70
   5   0  -1   -0.30    1.40
  -5   0   1   -0.20    1.10
  -5   0   1    1.00    1.90
   4   0  -1  139.49    4.60
   4   0  -1  143.19    5.20
  -4   0   1  142.49    5.20
  -4   0   1  137.39    4.40
   3   0  -1  138.59    4.20
   3   0  -1  138.59    4.30
   3   0  -1  134.89    4.60
  -3   0   1  141.89    4.60
  -3   0   1  141.59    4.20
   2   0  -1   87.19    2.70
   2   0  -1   94.09    2.80
   2   0  -1   90.69    2.50
  -2   0   1   94.19    2.70
  -2   0   1   92.59    3.10
  -2   0   1   86.79    2.70
  -2   0   1   92.59    2.50
   1   0  -1  124.79    3.30
   1   0  -1  121.19    3.50
   1   0  -1  125.79    3.40
   1   0  -1  128.69    3.40
  -1   0   1  129.39    3.60
  -1   0   1  124.79    3.40
  -1   0   1  124.89    3.40
  -1   0  -1 1970.20   49.99
  -1   0  -1 1994.80   49.99
   1   0   1 1955.30   49.90
   1   0   1 1971.00   49.99
  -2   0  -1  284.37    7.90
  -2   0  -1  285.17    7.60
   2   0   1  276.07    7.90
   2   0   1  297.87    7.60
  -3   0  -1    3.70    0.90
  -3   0  -1    5.30    0.70
   3   0   1    5.50    1.10
   3   0   1    6.50    0.80
  -4   0  -1  544.25   14.60
  -4   0  -1  558.44   15.40
   4   0   1  550.24   15.40
   4   0   1  547.35   14.80
  -5   0  -1  134.39    4.40
  -5   0  -1  133.39    5.70
   5   0   1  140.39    4.90
   5   0   1  132.09    5.60
  -6   0  -1    7.00    1.60
  -6   0  -1    4.30    2.60
   6   0   1    5.40    2.90
   6   0   1    4.00    2.10
   6  -1  -1   41.50    4.30
   6  -1  -1   35.80    3.60
  -6   1   1   38.00    4.10
  -6   1   1   40.70    3.00
   5  -1  -1   58.99    3.10
   5  -1  -1   53.39    3.80
  -5   1   1   55.79    3.50
  -5   1   1   53.49    2.70
   4  -1  -1  139.19    5.10
   4  -1  -1  149.99    4.60
  -4   1   1  143.89    4.50
  -4   1   1  141.19    5.10
   3  -1  -1  609.54   16.00
   3  -1  -1  635.84   16.10
   3  -1  -1  604.04   16.50
  -3   1   1  623.94   16.60
  -3   1   1  592.94   16.00
   2  -1  -1    1.10    0.50
   2  -1  -1    0.70    0.40
   2  -1  -1    1.30    0.60
  -2   1   1    1.20    0.30
  -2   1   1    1.10    0.50
  -2   1   1    1.70    0.40
  -2   1   1    2.00    0.50
   1  -1  -1 1851.01   47.20
   1  -1  -1 1858.21   47.20
   1  -1  -1 1891.71   47.30
  -1   1   1 1812.72   47.30
  -1   1   1 1848.42   47.20
  -1   1   1 1895.91   47.30
  -1   1   1 1916.71   47.20
  -1  -1  -1 9436.66  232.78
  -1  -1  -1 9211.58  232.48
   1   1   1 9569.14  232.38
   1   1   1 9169.88  232.38
   1   1   1 8578.34  232.78
  -2  -1  -1  101.29    3.20
  -2  -1  -1   94.89    2.90
   2   1   1   99.69    2.80
   2   1   1   97.29    3.00
   2   1   1  104.59    3.10
   2   1   1   98.29    3.30
  -3  -1  -1    1.80    0.90
  -3  -1  -1    2.10    0.60
   3   1   1    1.80    0.70
   3   1   1    1.30    0.90
  -4  -1  -1   89.89    4.00
  -4  -1  -1   91.49    3.20
   4   1   1   90.59    3.40
   4   1   1   88.19    4.00
  -5  -1  -1   10.30    2.40
  -5  -1  -1   12.30    1.50
   5   1   1   13.20    1.80
   5   1   1   11.30    2.40
  -6  -1  -1   11.50    1.80
  -6  -1  -1   16.20    3.50
   6   1   1   13.80    2.50
   6   1   1    8.50    3.60
   6  -2  -1   12.90    2.20
   6  -2  -1    6.60    2.70
  -6   2   1   11.80    2.80
  -6   2   1    8.90    1.60
   5  -2  -1    0.30    1.20
   5  -2  -1    0.50    1.70
  -5   2   1    0.00    1.80
  -5   2   1    0.00    1.00
   4  -2  -1   56.29    3.00
   4  -2  -1   53.89    2.50
  -4   2   1   52.29    2.90
  -4   2   1   60.99    2.40
   3  -2  -1    0.20    0.60
   3  -2  -1   -0.10    0.80
   3  -2  -1    0.70    0.70
  -3   2   1    0.10    0.50
  -3   2   1    0.30    0.50
  -3   2   1   -0.30    0.80
   2  -2  -1    3.00    0.50
   2  -2  -1    3.70    0.60
   2  -2  -1    2.80    0.50
  -2   2   1    3.30    0.50
  -2   2   1    3.50    0.70
  -2   2   1    2.40    0.50
  -2   2   1    2.60    0.50
   1  -2  -1 5621.14  139.39
   1  -2  -1 5484.95  139.29
   1  -2  -1 5622.54  139.29
  -1   2   1 5250.57  139.39
  -1   2   1 5407.86  139.19
  -1   2   1 5575.74  139.89
   0  -2  -1 1915.01   48.50
   0  -2  -1 1941.81   48.60
   0  -2  -1 1922.61   48.50
   0  -2  -1 1802.72   48.50
   0   2   1 1923.91   48.50
   0   2   1 1930.91   48.50
   0   2   1 1983.20   48.50
   0   2   1 1920.31   48.70
  -1  -2  -1  841.32   21.60
  -1  -2  -1  830.72   21.60
  -1  -2  -1  814.42   21.60
   1   2   1  831.62   21.70
   1   2   1  869.91   21.60
   1   2   1  872.31   21.60
   1   2   1  839.52   21.80
  -2  -2  -1  110.89    3.50
  -2  -2  -1  105.29    3.20
   2   2   1  104.69    3.40
   2   2   1  103.69    3.20
   2   2   1  102.89    3.30
   2   2   1  110.59    3.70
  -3  -2  -1  100.39    3.30
  -3  -2  -1  102.59    3.80
   3   2   1  103.99    4.10
   3   2   1  102.59    3.50
  -4  -2  -1    5.50    1.60
  -4  -2  -1    5.40    1.10
   4   2   1    3.50    1.50
   4   2   1    5.40    1.30
  -5  -2  -1    1.50    2.00
  -5  -2  -1    2.20    1.30
   5   2   1    1.10    1.60
   5   2   1    2.40    2.50
   6  -3  -1   43.40    4.50
   6  -3  -1   39.70    3.50
  -6   3   1   44.50    2.90
  -6   3   1   49.60    4.80
   5  -3  -1  263.17    7.90
   5  -3  -1  262.87    8.50
  -5   3   1  265.27    8.80
  -5   3   1  254.07    7.60
   4  -3  -1   12.90    1.30
   4  -3  -1   11.40    1.60
  -4   3   1   11.80    1.80
  -4   3   1   12.00    1.20
   3  -3  -1    0.10    0.80
   3  -3  -1    0.40    0.60
  -3   3   1   -0.30    0.50
  -3   3   1   -0.10    0.80
  -3   3   1    0.00    0.60
   2  -3  -1  110.49    3.40
   2  -3  -1  112.89    3.40
   2  -3  -1  114.79    3.40
  -2   3   1  110.99    3.70
  -2   3   1  113.59    3.40
  -2   3   1  114.19    3.50
  -2   3   1  115.59    3.40
   1  -3  -1  276.07    7.30
   1  -3  -1  284.27    7.40
   1  -3  -1  283.57    7.40
  -1   3   1  274.97    7.60
  -1   3   1  277.17    7.40
  -1   3   1  268.87    7.50
  -1   3   1  274.97    7.40
   0  -3  -1  130.79    3.90
   0  -3  -1  138.19    3.90
   0  -3  -1  136.99    3.90
   0  -3  -1  138.79    3.80
   0   3   1  137.49    3.90
   0   3   1  135.79    3.90
   0   3   1  138.69    3.90
   0   3   1  139.89    4.10
   0   3   1  137.99    3.90
  -1  -3  -1  596.24   15.30
  -1  -3  -1  584.64   15.30
  -1  -3  -1  586.94   15.30
   1   3   1  584.24   15.30
   1   3   1  591.84   15.40
   1   3   1  580.84   15.30
   1   3   1  580.34   15.50
  -2  -3  -1  104.59    3.30
  -2  -3  -1  106.69    3.50
   2   3   1   98.09    3.30
   2   3   1  102.79    3.40
   2   3   1  103.89    3.80
   2   3   1  105.89    3.50
  -3  -3  -1  307.07    9.00
  -3  -3  -1  312.17    8.60
   3   3   1  299.77    8.70
   3   3   1  309.57    9.30
  -4  -3  -1    2.50    1.60
  -4  -3  -1    1.30    1.10
   4   3   1    1.60    1.60
   4   3   1    3.10    1.30
  -5  -3  -1    8.50    1.70
   5   3   1    5.70    1.90
   5   3   1   12.90    3.10
   6  -4  -1  213.28    7.30
  -6   4   1  210.78    8.70
   5  -4  -1    6.30    1.50
  -5   4   1    7.00    2.20
  -5   4   1    6.60    1.30
   4  -4  -1   79.79    3.20
   4  -4  -1   77.49    3.40
  -4   4   1   85.09    4.00
   3  -4  -1   26.90    1.80
   3  -4  -1   30.80    1.70
  -3   4   1   25.10    1.90
  -3   4   1   34.10    1.80
  -3   4   1   28.20    1.50
   2  -4  -1   79.49    2.60
   2  -4  -1   79.29    2.70
   2  -4  -1   77.69    2.60
  -2   4   1   79.39    2.80
  -2   4   1   77.09    2.90
  -2   4   1   76.09    2.60
   1  -4  -1  652.03   16.60
   1  -4  -1  644.94   16.70
   1  -4  -1  645.54   16.80
  -1   4   1  640.94   16.90
  -1   4   1  650.03   16.70
  -1   4   1  637.44   17.00
  -1   4   1  635.44   16.70
   0  -4  -1  551.24   14.60
   0  -4  -1  555.24   14.60
   0  -4  -1  561.64   14.50
   0  -4  -1  569.94   14.50
   0   4   1  551.14   14.50
   0   4   1  557.34   14.50
   0   4   1  548.05   14.80
   0   4   1  543.65   14.50
   0   4   1  557.54   14.60
  -1  -4  -1  456.05   12.70
  -1  -4  -1  494.85   12.70
   1   4   1  479.35   12.70
   1   4   1  476.25   12.80
   1   4   1  482.55   12.90
   1   4   1  485.55   13.00
  -2  -4  -1   11.60    1.30
  -2  -4  -1    6.90    1.00
   2   4   1    8.70    1.10
   2   4   1    8.90    1.30
   2   4   1   11.20    1.30
  -3  -4  -1   73.59    3.10
   3   4   1   77.59    3.70
   3   4   1   81.49    3.30
  -4  -4  -1    3.50    1.30
   4   4   1    2.80    2.10
   4   4   1    3.70    1.60
  -5  -4  -1    0.70    1.80
   5   4   1    0.50    2.70
  -6   5   1    1.90    1.60
  -6   5   1    2.80    3.00
   5  -5  -1   39.00    2.90
  -5   5   1   43.50    2.50
  -5   5   1   36.60    3.80
   4  -5  -1  281.97    8.30
  -4   5   1  289.97    8.20
  -4   5   1  284.47    9.10
   3  -5  -1    0.30    0.90
  -3   5   1    0.50    1.00
  -3   5   1    0.30    0.90
  -3   5   1   -0.30    0.70
   2  -5  -1   58.39    2.50
   2  -5  -1   65.89    2.50
  -2   5   1   66.29    2.70
  -2   5   1   56.39    2.30
  -2   5   1   58.99    2.70
   1  -5  -1  405.26   10.70
   1  -5  -1  400.76   10.90
   1  -5  -1  417.26   10.90
  -1   5   1  398.86   11.20
  -1   5   1  414.66   10.90
  -1   5   1  391.56   10.80
  -1   5   1  396.06   11.00
   0  -5  -1   56.19    2.20
   0  -5  -1   59.59    2.30
   0  -5  -1   51.09    2.20
   0   5   1   59.49    2.30
   0   5   1   53.69    2.30
   0   5   1   50.59    2.50
   0   5   1   56.19    2.20
  -1  -5  -1    5.60    0.90
  -1  -5  -1    7.30    1.10
   1   5   1    6.70    1.30
   1   5   1    7.50    1.20
   1   5   1    7.40    1.10
   1   5   1    7.90    1.20
  -2  -5  -1    1.20    0.90
   2   5   1    1.80    1.30
   2   5   1    2.20    1.30
   2   5   1    1.00    0.90
  -3  -5  -1   68.89    3.30
   3   5   1   74.89    3.90
   3   5   1   71.59    3.50
  -4  -5  -1   38.30    3.00
   4   5   1   33.50    4.10
  -6   6   1  286.87   10.80
  -6   6   1  288.07    9.70
   5  -6  -1   82.29    4.20
  -5   6   1   82.09    4.70
  -5   6   1   86.99    3.60
   4  -6  -1   63.09    3.20
  -4   6   1   61.59    2.80
  -4   6   1   60.69    3.70
   3  -6  -1  112.79    4.10
  -3   6   1  115.89    4.00
  -3   6   1  120.99    4.60
  -3   6   1  108.49    4.20
   2  -6  -1  118.59    4.00
  -2   6   1  110.79    4.20
  -2   6   1  118.99    3.90
  -2   6   1  115.49    4.30
   1  -6  -1    3.10    0.90
   1  -6  -1    3.80    1.10
  -1   6   1    5.30    1.30
  -1   6   1    2.90    0.90
  -1   6   1    6.60    1.20
   0  -6  -1   53.29    2.50
   0   6   1   54.09    2.50
   0   6   1   57.29    2.90
  -1  -6  -1  133.19    4.30
   1   6   1  123.79    4.80
   1   6   1  117.09    4.40
  -2  -6  -1    0.50    1.20
   2   6   1    0.80    1.50
   2   6   1    0.40    1.50
  -3  -6  -1   69.89    3.60
   3   6   1   66.19    4.30
  -4  -6  -1    2.90    2.00
   4   6   1   -0.30    2.80
  -5   7   1    3.40    2.40
  -5   7   1    2.40    1.50
   4  -7  -1   71.49    3.80
  -4   7   1   69.49    4.30
  -4   7   1   71.59    3.30
   3  -7  -1   68.29    3.30
  -3   7   1   72.49    3.70
  -3   7   1   69.49    3.10
  -3   7   1   75.39    3.80
   2  -7  -1   20.40    2.10
  -2   7   1   17.30    2.00
  -2   7   1   21.10    1.90
  -2   7   1   19.70    2.10
  -1   7   1  468.45   13.70
  -1   7   1  491.65   13.20
   0  -7  -1   59.29    2.90
   0   7   1   55.79    2.90
   0   7   1   52.79    3.30
  -1  -7  -1   88.29    3.80
   1   7   1   82.09    4.10
  -2  -7  -1   15.00    1.90
   2   7   1   12.60    2.30
  -3  -7  -1   14.50    2.30
  -5   8   1   69.29    3.90
  -5   8   1   83.09    5.80
  -4   8   1  151.38    5.50
  -4   8   1  159.68    6.60
  -3   8   1   25.00    2.50
  -3   8   1   21.90    2.70
  -2   8   1   -0.30    1.70
  -2   8   1    0.10    1.30
  -1   8   1  227.58    7.70
  -1   8   1  211.78    6.90
   0   8   1  249.68    8.50
   0   8   1  261.77    8.60
  -1  -8  -1   21.00    2.30
   1   8   1   24.40    2.90
  -2  -8  -1    5.00    2.10
   2   8   1    8.80    2.70
  -3  -8  -1   23.50    3.00
  -4   9   1   11.00    2.10
  -3   9   1    2.70    2.40
  -3   9   1    6.50    1.90
  -2   9   1   74.89    3.80
  -2   9   1   74.69    4.40
  -1   9   1   15.20    2.20
  -1   9   1   15.40    2.50
   0   9   1   13.20    2.60
   1   9   1   63.29    5.00
  -2  -9  -1   13.50    2.90
  -3  10   1   36.60    4.10
  -3  10   1   32.50    3.10
  -2  10   1   20.20    3.50
  -2  10   1   16.30    2.60
  -1  10   1    2.00    2.60
  -1  10   1    5.30    2.40
   0  10   1    7.60    3.20
   0  10  -2    5.60    2.50
   0  10  -2    6.40    3.10
  -1  10  -2   31.80    2.90
  -1  10  -2   26.80    3.60
  -2  10  -2    1.50    2.70
  -2  10  -2    0.90    1.80
  -3  10  -2   19.00    3.40
  -3  10  -2   20.00    2.40
   2   9  -2   34.40    4.00
   1   9  -2   55.19    4.80
   0   9  -2   31.30    3.50
   0   9  -2   36.40    3.30
  -1   9  -2    0.30    1.50
  -1   9  -2    0.40    1.90
  -2   9  -2   63.59    4.40
  -2   9  -2   68.59    3.50
  -3   9  -2   44.40    3.00
  -3   9  -2   40.50    4.00
  -4   9  -2   72.39    3.70
  -4   9  -2   63.09    5.30
  -3  -8   2    2.70    2.70
   2   8  -2   81.29    4.90
   1   8  -2   53.59    3.50
   1   8  -2   59.79    3.80
   0   8  -2   40.40    2.80
   0   8  -2   42.60    3.50
  -1   8  -2   -0.20    1.60
  -1   8  -2    0.50    1.20
  -2   8  -2   21.80    2.50
  -2   8  -2   18.60    2.40
  -2   8  -2   18.80    1.80
   2  -8   2   18.20    1.90
  -3   8  -2    1.60    1.90
  -3   8  -2    1.70    1.20
  -3   8  -2    0.20    2.00
   3  -8   2    0.90    1.50
  -4   8  -2    5.50    1.40
  -4   8  -2    4.80    2.30
   4  -8   2    4.00    1.80
  -5   8  -2    0.40    3.10
  -5   8  -2   -0.10    1.50
   5  -8   2    0.40    2.30
  -3  -7   2  105.09    5.00
   2   7  -2   -0.30    1.80
  -2  -7   2    0.40    1.50
   1   7  -2    0.00    1.30
   1   7  -2    0.50    1.60
   0   7  -2   86.09    3.40
   0   7  -2   78.49    3.80
   0  -7   2   77.69    3.50
  -1   7  -2  763.12   19.80
  -1   7  -2  733.53   20.40
  -1   7  -2  734.73   20.20
   1  -7   2  748.43   20.20
   1  -7   2  744.33   19.80
  -2   7  -2   11.00    1.80
  -2   7  -2    9.60    1.80
  -2   7  -2   11.80    1.30
   2  -7   2   12.10    1.50
  -3   7  -2   32.60    2.80
  -3   7  -2   31.70    2.80
  -3   7  -2   41.50    2.20
   3  -7   2   33.20    2.50
  -4   7  -2   72.99    4.60
  -4   7  -2   78.39    3.10
   4  -7   2   73.99    3.70
  -5   7  -2   -0.60    2.60
  -5   7  -2    0.10    1.20
   5  -7   2    0.30    1.90
   4   6  -2   15.40    3.20
  -4  -6   2   15.60    2.50
   3   6  -2   28.10    3.40
  -3  -6   2   32.50    3.00
   2   6  -2    4.50    1.60
   2   6  -2    4.10    1.60
  -2  -6   2    6.80    1.50
   1   6  -2   35.60    2.50
   1   6  -2   30.80    2.10
  -1  -6   2   30.10    2.30
  -1  -6   2   27.30    2.20
   0   6  -2    2.30    1.10
   0   6  -2    3.30    0.90
   0  -6   2    2.20    1.10
   0  -6   2    3.50    1.10
   0  -6   2    3.20    1.20
  -1   6  -2    1.50    1.10
  -1   6  -2    1.00    1.00
  -1   6  -2    1.20    0.80
   1  -6   2    1.10    0.90
   1  -6   2    1.90    1.10
  -2   6  -2  123.99    4.60
  -2   6  -2  118.89    4.40
  -2   6  -2  118.79    3.90
   2  -6   2  128.79    4.10
  -3   6  -2   26.20    2.60
  -3   6  -2   29.20    2.30
  -3   6  -2   28.30    1.80
   3  -6   2   26.40    2.00
  -4   6  -2   82.79    4.40
  -4   6  -2   80.79    3.00
   4  -6   2   76.39    3.50
  -5   6  -2    1.50    2.30
  -5   6  -2    4.20    1.20
   5  -6   2    2.70    1.60
  -6   6  -2   36.60    2.40
   6  -6   2   41.10    4.20
   4   5  -2   10.30    2.70
  -4  -5   2   14.30    2.10
   3   5  -2   40.70    3.20
  -3  -5   2   46.40    2.80
  -3  -5   2   43.80    3.10
   2   5  -2  394.16   11.10
   2   5  -2  373.96   11.10
   2   5  -2  394.36   10.90
  -2  -5   2  403.66   11.10
  -2  -5   2  379.16   10.80
   1   5  -2   29.30    2.00
   1   5  -2   33.10    2.50
   1   5  -2   26.70    1.80
   1   5  -2   33.30    1.90
  -1  -5   2   30.50    1.90
  -1  -5   2   34.20    2.00
  -1  -5   2   36.20    1.90
   0   5  -2  224.78    6.00
   0   5  -2  216.08    6.60
   0   5  -2  207.38    6.10
   0   5  -2  216.18    6.40
   0   5  -2  211.78    6.30
   0  -5   2  217.48    6.20
   0  -5   2  206.78    6.20
   0  -5   2  219.88    6.40
  -1   5  -2  108.69    3.90
  -1   5  -2  115.89    3.90
  -1   5  -2  109.09    3.50
   1  -5   2  112.19    3.50
  -2   5  -2   50.19    2.50
  -2   5  -2   54.09    2.50
  -2   5  -2   51.29    2.00
   2  -5   2   59.09    2.20
  -3   5  -2 1673.53   43.70
  -3   5  -2 1710.53   43.20
  -3   5  -2 1647.24   42.80
   3  -5   2 1680.13   43.00
  -4   5  -2    3.00    0.90
  -4   5  -2    4.60    1.80
   4  -5   2    5.50    1.20
  -5   5  -2   11.70    2.60
  -5   5  -2   11.40    1.30
   5  -5   2    9.20    1.70
  -6   5  -2   24.20    3.90
  -6   5  -2   21.10    2.10
   6  -5   2   20.70    2.60
   5   4  -2   20.40    3.30
  -5  -4   2   21.90    2.50
   4   4  -2    1.40    2.10
  -4  -4   2    3.30    2.00
  -4  -4   2    1.90    1.40
   3   4  -2    1.10    1.20
   3   4  -2    0.50    1.80
  -3  -4   2   -0.10    1.00
  -3  -4   2    0.40    1.30
   2   4  -2   84.09    3.20
   2   4  -2   79.99    3.10
   2   4  -2   81.79    3.00
  -2  -4   2   77.09    3.20
  -2  -4   2   72.49    2.90
   1   4  -2   57.59    2.20
   1   4  -2   57.39    2.20
   1   4  -2   53.69    2.40
   1   4  -2   49.60    2.20
  -1  -4   2   55.49    2.10
  -1  -4   2   53.29    2.20
  -1  -4   2   60.19    2.40
   0   4  -2    5.30    0.90
   0   4  -2    8.10    0.80
   0   4  -2    7.60    0.80
   0   4  -2    5.70    0.70
   0   4  -2    7.20    0.90
   0  -4   2    7.20    0.90
   0  -4   2    7.70    0.80
   0  -4   2    9.40    0.80
  -1   4  -2  224.68    6.40
  -1   4  -2  213.18    6.00
  -1   4  -2  218.68    6.30
   1  -4   2  223.38    6.10
   1  -4   2  219.18    6.00
  -2   4  -2    0.90    0.80
  -2   4  -2    1.70    0.80
  -2   4  -2    1.10    0.50
   2  -4   2    1.10    0.50
   2  -4   2    1.50    0.60
  -3   4  -2   51.79    2.20
  -3   4  -2   53.59    2.00
  -3   4  -2   55.89    2.80
   3  -4   2   53.79    2.30
   3  -4   2   50.59    2.10
  -4   4  -2   21.70    2.60
  -4   4  -2   22.70    1.50
   4  -4   2   23.90    1.80
  -5   4  -2    0.20    1.90
  -5   4  -2    0.50    0.90
   5  -4   2    0.90    1.20
  -6   4  -2    1.30    2.90
  -6   4  -2   -0.20    1.10
   6  -4   2   -0.40    1.80
   5   3  -2   51.19    4.30
  -5  -3   2   59.19    4.40
  -5  -3   2   61.29    3.50
   4   3  -2    2.60    1.90
  -4  -3   2    4.30    1.30
  -4  -3   2    2.40    1.60
   3   3  -2   62.79    3.20
   3   3  -2   63.19    2.70
  -3  -3   2   61.59    2.70
  -3  -3   2   65.99    3.10
   2   3  -2    0.00    0.70
   2   3  -2    0.00    0.70
   2   3  -2    0.10    0.70
   2   3  -2    0.20    0.60
  -2  -3   2    0.40    0.70
  -2  -3   2    0.30    0.80
  -2  -3   2    0.50    0.70
   1   3  -2    1.60    0.60
   1   3  -2    0.50    0.50
   1   3  -2    0.90    0.50
   1   3  -2    0.50    0.50
  -1  -3   2    0.90    0.60
  -1  -3   2    0.70    0.40
  -1  -3   2    0.40    0.50
   0   3  -2  186.68    5.10
   0   3  -2  181.38    5.30
   0   3  -2  178.48    5.30
   0   3  -2  194.18    5.10
   0   3  -2  188.18    5.00
   0  -3   2  188.88    5.10
   0  -3   2  191.48    5.10
   0  -3   2  184.08    5.30
  -1   3  -2    1.40    0.50
  -1   3  -2    1.50    0.30
  -1   3  -2    1.70    0.50
   1  -3   2    1.60    0.40
  -2   3  -2  231.28    6.20
  -2   3  -2  223.48    6.70
  -2   3  -2  235.28    6.40
  -2   3  -2  233.38    6.30
   2  -3   2  235.58    6.30
   2  -3   2  237.18    6.30
  -3   3  -2  521.05   13.90
  -3   3  -2  524.85   14.70
  -3   3  -2  541.25   14.00
   3  -3   2  545.55   14.30
   3  -3   2  540.25   14.10
  -4   3  -2  237.28    7.70
  -4   3  -2  238.18    6.60
   4  -3   2  233.08    7.40
   4  -3   2  242.38    6.90
  -5   3  -2  391.56   12.40
  -5   3  -2  401.76   10.90
   5  -3   2  433.66   12.20
   5  -3   2  391.86   11.40
  -6   3  -2   13.60    3.10
  -6   3  -2   10.90    1.40
   6  -3   2   13.50    2.10
  -6  -2   2   45.50    4.80
   5   2  -2  116.79    5.90
  -5  -2   2  125.09    4.70
  -5  -2   2  129.89    5.80
   4   2  -2   48.40    2.70
   4   2  -2   45.30    3.10
  -4  -2   2   49.60    3.00
  -4  -2   2   48.10    2.60
   3   2  -2  117.49    4.00
   3   2  -2  118.19    3.90
   3   2  -2  119.19    4.40
  -3  -2   2  111.79    3.80
  -3  -2   2  113.69    4.20
   2   2  -2    7.80    0.80
   2   2  -2    4.70    0.70
   2   2  -2    7.60    1.00
  -2  -2   2    4.80    0.80
  -2  -2   2    5.60    0.70
   1   2  -2    2.00    0.50
   1   2  -2    1.70    0.40
   1   2  -2    1.50    0.40
  -1  -2   2    1.20    0.40
  -1  -2   2    1.70    0.40
  -1  -2   2    1.30    0.50
   0   2  -2  173.38    4.60
   0   2  -2  168.58    4.90
   0   2  -2  177.78    4.70
   0   2  -2  177.08    4.90
   0  -2   2  168.78    4.90
   0  -2   2  177.48    4.70
   0  -2   2  196.68    5.00
  -1   2  -2  325.97    9.20
  -1   2  -2  364.06    9.10
  -1   2  -2  355.26    9.50
  -1   2  -2  365.06    9.30
   1  -2   2  366.16    9.10
   1  -2   2  350.56    9.20
  -2   2  -2  751.32   18.60
  -2   2  -2  727.03   18.60
  -2   2  -2  726.83   19.10
  -2   2  -2  750.42   18.70
   2  -2   2  706.13   18.80
   2  -2   2  701.43   18.60
  -3   2  -2  222.48    6.80
  -3   2  -2  219.98    6.00
   3  -2   2  222.58    6.60
   3  -2   2  222.18    6.20
  -4   2  -2    4.10    1.40
  -4   2  -2    5.30    0.80
   4  -2   2    5.60    1.50
   4  -2   2    6.70    1.00
  -5   2  -2   18.60    1.60
  -5   2  -2   20.20    2.60
   5  -2   2   20.20    1.80
   5  -2   2   17.70    2.40
  -6   2  -2    0.40    2.40
   6  -2   2    0.60    1.80
   6  -2   2    0.60    2.70
   6   1  -2   -0.10    3.20
  -6  -1   2   -0.40    1.80
  -6  -1   2    1.00    3.00
   5   1  -2    1.30    1.60
   5   1  -2    1.20    2.10
  -5  -1   2    2.10    2.00
  -5  -1   2    2.70    1.30
   4   1  -2    1.00    1.00
   4   1  -2    0.50    1.30
  -4  -1   2    0.40    1.20
  -4  -1   2   -0.10    0.90
   3   1  -2  184.28    5.80
   3   1  -2  184.28    5.40
   3   1  -2  181.18    5.40
  -3  -1   2  186.38    5.80
  -3  -1   2  174.88    5.30
   2   1  -2  200.68    5.50
   2   1  -2  190.58    5.70
   2   1  -2  198.98    5.30
   2   1  -2  199.98    5.50
  -2  -1   2  192.58    5.50
  -2  -1   2  204.68    5.40
  -2  -1   2  184.48    5.70
   1   1  -2  563.94   14.20
   1   1  -2  511.15   14.30
   1   1  -2  559.14   14.20
   1   1  -2  579.64   14.20
  -1  -1   2  535.85   14.40
  -1  -1   2  568.34   14.20
  -1  -1   2  550.74   14.20
   0   1  -2  371.66    9.50
   0   1  -2  365.36    9.40
   0   1  -2  364.36    9.50
   0   1  -2  365.06    9.40
   0  -1   2  366.76    9.40
   0  -1   2  372.36    9.50
  -1   1  -2  643.94   16.70
  -1   1  -2  656.03   16.30
  -1   1  -2  656.23   16.30
  -1   1  -2  653.63   16.40
   1  -1   2  653.93   16.50
   1  -1   2  630.24   16.30
   1  -1   2  616.04   16.30
  -2   1  -2  162.58    4.30
  -2   1  -2  158.88    4.70
  -2   1  -2  159.18    4.10
  -2   1  -2  163.68    4.30
   2  -1   2  154.68    4.60
   2  -1   2  152.18    4.30
  -3   1  -2   37.70    1.40
  -3   1  -2   32.60    1.90
   3  -1   2   36.40    1.50
   3  -1   2   30.70    2.00
  -4   1  -2  454.05   13.10
  -4   1  -2  461.15   12.20
   4  -1   2  458.15   13.10
   4  -1   2  460.45   12.40
  -5   1  -2  213.68    6.10
  -5   1  -2  194.98    7.20
   5  -1   2  213.38    7.50
   5  -1   2  205.58    6.50
  -6   1  -2    0.50    2.40
  -6   1  -2   -0.20    1.20
   6  -1   2   -0.20    1.80
   6  -1   2    0.10    2.90
   6   0  -2    3.70    3.10
  -6   0   2    3.00    1.70
  -6   0   2    3.10    2.80
   5   0  -2   46.00    3.70
   5   0  -2   46.40    3.00
  -5   0   2   46.00    3.60
  -5   0   2   45.60    2.70
   4   0  -2  490.85   14.20
   4   0  -2  494.45   13.60
  -4   0   2  513.35   13.50
  -4   0   2  504.75   14.20
   3   0  -2  250.77    6.90
   3   0  -2  250.07    6.80
   3   0  -2  249.78    7.30
  -3   0   2  221.38    6.70
  -3   0   2  239.78    7.20
   2   0  -2  443.06   12.40
   2   0  -2  473.85   12.00
   2   0  -2  470.65   12.20
   2   0  -2  467.75   12.20
  -2   0   2  450.95   12.50
  -2   0   2  472.85   12.20
  -2   0   2  482.95   12.20
   1   0  -2  666.23   17.00
   1   0  -2  668.03   17.00
   1   0  -2  671.73   17.20
   1   0  -2  681.83   17.10
  -1   0   2  673.33   17.10
  -1   0   2  667.23   17.00
  -1   0   2  649.04   17.20
   0   0  -2 1313.57   31.90
   0   0  -2 1262.67   32.00
   0   0  -2 1257.37   31.90
   0   0   2 1216.58   32.00
  -1   0  -2   60.69    1.90
  -1   0  -2   60.09    1.60
  -1   0  -2   61.39    1.60
   1   0   2   59.49    1.70
   1   0   2   60.09    1.80
   1   0   2   58.69    1.70
   1   0   2   58.79    1.90
  -2   0  -2    2.70    0.40
  -2   0  -2    3.30    0.50
  -2   0  -2    3.10    0.70
   2   0   2    3.20    0.40
   2   0   2    2.50    0.70
  -3   0  -2  243.28    7.10
  -3   0  -2  245.38    6.50
   3   0   2  221.38    7.10
   3   0   2  239.98    6.60
  -4   0  -2  101.49    3.30
  -4   0  -2  100.19    4.20
   4   0   2  104.49    3.60
   4   0   2  111.59    4.40
  -5   0  -2   91.99    4.80
  -5   0  -2   97.09    3.50
   5   0   2   97.39    4.00
   5   0   2  105.79    4.90
  -6   0  -2   25.70    2.40
  -6   0  -2   29.80    3.50
   6   0   2   26.20    2.70
   6   0   2   23.90    3.80
   6  -1  -2   11.20    3.10
  -6   1   2   13.80    1.90
  -6   1   2   12.90    2.90
   5  -1  -2   20.10    2.40
   5  -1  -2   21.40    2.10
  -5   1   2   17.90    1.70
  -5   1   2   19.20    2.40
   4  -1  -2  106.39    4.30
   4  -1  -2  110.39    3.80
  -4   1   2  104.69    4.20
  -4   1   2  108.59    3.60
   3  -1  -2   62.69    2.40
   3  -1  -2   63.09    2.70
   3  -1  -2   65.79    2.40
  -3   1   2   59.79    2.70
  -3   1   2   65.09    2.50
  -3   1   2   65.89    1.90
  -3   1   2   61.09    2.30
   2  -1  -2  332.97    8.70
   2  -1  -2  310.57    8.90
   2  -1  -2  342.17    8.80
  -2   1   2  344.87    8.70
  -2   1   2  321.57    9.10
  -2   1   2  327.57    8.80
  -2   1   2  331.07    8.60
   1  -1  -2 1439.16   36.60
   1  -1  -2 1437.76   36.60
   1  -1  -2 1445.56   36.70
  -1   1   2 1475.85   36.60
  -1   1   2 1439.16   36.80
  -1   1   2 1441.96   36.70
   0  -1  -2    0.40    0.30
   0  -1  -2    0.30    0.20
   0   1   2    0.30    0.20
   0   1   2    0.50    0.20
  -1  -1  -2 9999.00  247.48
  -1  -1  -2 9500.05  247.18
   1   1   2 9724.43  247.38
   1   1   2 9697.73  248.68
   1   1   2 9992.80  247.38
  -2  -1  -2    7.90    0.70
  -2  -1  -2    8.20    0.90
   2   1   2    5.80    0.60
   2   1   2    5.20    0.90
   2   1   2    7.10    0.70
  -3  -1  -2    2.80    1.00
  -3  -1  -2    0.60    0.60
   3   1   2    0.50    0.60
   3   1   2    0.20    0.90
  -4  -1  -2    4.60    1.50
  -4  -1  -2    4.40    0.90
   4   1   2    4.10    1.00
   4   1   2    4.00    1.50
  -5  -1  -2  102.19    4.90
  -5  -1  -2   96.69    3.60
   5   1   2  100.99    5.00
   5   1   2   94.99    4.10
  -6  -1  -2   41.80    2.80
  -6  -1  -2   52.09    5.00
   6   1   2   54.19    4.20
   6   1   2   46.20    4.80
   6  -2  -2   80.79    5.40
  -6   2   2   87.39    5.20
  -6   2   2   86.29    3.90
   5  -2  -2   18.40    2.50
   5  -2  -2   18.60    1.90
  -5   2   2   17.90    1.70
  -5   2   2   16.90    2.30
   4  -2  -2   38.40    2.10
   4  -2  -2   42.80    2.70
  -4   2   2   40.80    2.10
  -4   2   2   42.80    2.80
   3  -2  -2  593.74   16.00
   3  -2  -2  596.94   15.60
   3  -2  -2  593.44   15.70
  -3   2   2  610.54   15.40
  -3   2   2  589.34   16.10
  -3   2   2  584.54   15.60
   2  -2  -2 2067.69   50.89
   2  -2  -2 1996.40   50.99
   2  -2  -2 2015.00   50.79
  -2   2   2 1994.90   50.79
  -2   2   2 1975.60   51.09
  -2   2   2 1965.50   50.79
   1  -2  -2 1618.14   40.40
   1  -2  -2 1648.64   40.40
   1  -2  -2 1599.04   40.40
  -1   2   2 1566.34   40.30
  -1   2   2 1491.45   40.40
  -1   2   2 1576.04   40.40
  -1   2   2 1641.14   40.50
   0  -2  -2  331.67    8.70
   0  -2  -2  337.07    8.60
   0  -2  -2  324.17    8.80
   0  -2  -2  330.17    8.70
   0   2   2  342.27    8.70
   0   2   2  358.46    8.80
   0   2   2  332.37    8.60
   0   2   2  322.27    8.90
  -1  -2  -2  149.19    4.10
  -1  -2  -2  147.49    4.10
   1   2   2  147.99    4.10
   1   2   2  143.59    4.20
   1   2   2  149.09    4.40
   1   2   2  146.49    4.10
  -2  -2  -2 2142.49   56.19
  -2  -2  -2 2232.98   56.39
   2   2   2 2150.08   56.69
   2   2   2 2275.87   56.19
   2   2   2 2233.68   56.29
   2   2   2 2252.17   56.29
  -3  -2  -2   20.50    1.40
  -3  -2  -2   23.90    1.80
   3   2   2   22.30    2.00
   3   2   2   21.60    1.50
  -4  -2  -2   80.49    3.00
  -4  -2  -2   75.19    3.70
   4   2   2   78.29    4.10
   4   2   2   68.39    3.20
  -5  -2  -2   11.00    3.30
  -5  -2  -2    9.00    1.50
   5   2   2   11.40    1.80
   5   2   2    9.20    2.50
   6  -3  -2    7.70    2.80
  -6   3   2    5.50    2.90
  -6   3   2    6.40    1.60
   5  -3  -2   52.99    3.00
   5  -3  -2   54.09    3.70
  -5   3   2   51.29    3.50
  -5   3   2   51.19    2.70
   4  -3  -2   85.89    3.70
   4  -3  -2   77.69    3.20
  -4   3   2   88.49    3.20
  -4   3   2   90.99    3.80
   3  -3  -2   36.60    1.90
   3  -3  -2   39.90    1.80
   3  -3  -2   40.50    2.00
  -3   3   2   39.70    1.70
  -3   3   2   43.60    1.80
  -3   3   2   34.60    2.20
   2  -3  -2 1014.40   26.30
   2  -3  -2 1031.30   26.40
  -2   3   2 1045.80   26.30
  -2   3   2 1014.90   26.60
  -2   3   2 1032.10   26.40
  -2   3   2 1001.70   26.30
   1  -3  -2   59.59    2.00
   1  -3  -2   58.89    2.00
   1  -3  -2   57.49    1.90
  -1   3   2   56.99    2.00
  -1   3   2   56.99    2.00
  -1   3   2   57.69    1.90
  -1   3   2   59.49    2.10
   0  -3  -2  128.59    3.70
   0  -3  -2  136.49    3.60
   0  -3  -2  127.79    3.70
   0  -3  -2  129.29    3.80
   0   3   2  130.99    3.70
   0   3   2  135.29    3.60
   0   3   2  126.19    3.70
   0   3   2  123.99    3.90
  -1  -3  -2   10.70    0.90
  -1  -3  -2   11.30    1.00
  -1  -3  -2    8.70    0.80
   1   3   2    9.40    1.00
   1   3   2   10.40    1.10
   1   3   2    9.70    0.90
  -2  -3  -2  259.87    7.20
  -2  -3  -2  273.77    7.40
   2   3   2  257.77    7.70
   2   3   2  248.58    7.20
   2   3   2  258.57    7.30
  -3  -3  -2  548.15   15.00
  -3  -3  -2  545.95   14.70
   3   3   2  554.04   14.80
   3   3   2  552.54   15.50
  -4  -3  -2    5.30    1.20
   4   3   2    5.40    1.50
   4   3   2    6.70    2.10
  -5  -3  -2    5.70    1.60
   5   3   2    5.40    2.00
   5   3   2    6.00    3.00
  -6   4   2    1.60    1.50
  -6   4   2    2.40    2.60
   5  -4  -2   -0.60    1.70
   5  -4  -2    0.60    1.30
  -5   4   2   -0.20    1.90
  -5   4   2   -0.10    1.10
   4  -4  -2  169.08    5.40
   4  -4  -2  169.68    5.70
  -4   4   2  172.88    5.30
  -4   4   2  170.08    6.10
   3  -4  -2    6.60    1.10
   3  -4  -2    7.60    1.00
  -3   4   2    9.40    1.10
  -3   4   2    7.70    1.30
   2  -4  -2 1147.39   29.50
   2  -4  -2 1152.08   29.60
   2  -4  -2 1134.99   29.60
  -2   4   2 1167.18   29.60
  -2   4   2 1151.28   29.50
  -2   4   2 1166.98   29.90
  -2   4   2 1128.69   29.70
   1  -4  -2 1535.25   38.80
   1  -4  -2 1515.95   38.70
   1  -4  -2 1510.75   38.80
  -1   4   2 1539.35   38.90
  -1   4   2 1499.55   38.80
  -1   4   2 1521.25   38.80
  -1   4   2 1515.45   39.10
   0  -4  -2  141.49    4.30
   0  -4  -2  149.09    4.30
   0  -4  -2  144.59    4.40
   0  -4  -2  155.88    4.20
   0   4   2  143.29    4.30
   0   4   2  145.09    4.60
   0   4   2  141.89    4.20
   0   4   2  141.19    4.30
  -1  -4  -2    0.40    0.60
  -1  -4  -2    0.60    0.60
  -1  -4  -2    2.00    0.80
   1   4   2    0.70    0.70
   1   4   2    0.40    0.60
   1   4   2    0.30    0.70
   1   4   2   -0.10    0.70
  -2  -4  -2   21.50    1.80
  -2  -4  -2   23.70    1.50
   2   4   2   19.50    1.70
   2   4   2   24.90    2.10
   2   4   2   22.60    1.70
  -3  -4  -2    0.60    0.90
   3   4   2    0.90    1.60
   3   4   2    0.70    1.10
  -4  -4  -2  125.69    4.40
   4   4   2  118.89    4.90
   4   4   2  118.09    5.70
  -5  -4  -2    0.50    1.70
   5   4   2    0.50    3.00
  -6   5   2  100.29    6.20
  -6   5   2   86.39    4.20
   5  -5  -2   42.10    3.00
  -5   5   2   41.40    2.50
  -5   5   2   37.40    3.70
   4  -5  -2   11.90    1.50
  -4   5   2   11.70    2.00
  -4   5   2   15.00    1.50
   3  -5  -2   17.20    1.80
  -3   5   2   17.30    1.60
  -3   5   2   18.00    1.80
  -3   5   2   18.40    2.00
   2  -5  -2   82.19    2.80
   2  -5  -2   84.49    3.10
   2  -5  -2   89.89    3.00
  -2   5   2   85.39    3.20
  -2   5   2   77.39    3.10
  -2   5   2   79.19    2.90
   1  -5  -2   29.80    1.60
   1  -5  -2   35.80    1.80
   1  -5  -2   26.30    1.60
  -1   5   2   31.40    1.70
  -1   5   2   34.90    2.00
  -1   5   2   37.40    1.80
  -1   5   2   28.60    1.70
   0  -5  -2  155.18    4.80
   0  -5  -2  154.38    4.90
   0  -5  -2  163.68    4.70
   0  -5  -2  156.18    4.80
   0   5   2  163.08    4.80
   0   5   2  149.69    5.10
   0   5   2  166.98    4.90
   0   5   2  164.58    4.90
  -1  -5  -2   82.29    3.10
   1   5   2   81.99    3.30
   1   5   2   90.99    3.40
   1   5   2   95.89    3.20
   1   5   2   78.59    3.20
  -2  -5  -2   10.00    1.30
   2   5   2   11.90    1.60
   2   5   2    6.50    1.20
   2   5   2    8.40    1.50
  -3  -5  -2   26.70    2.20
   3   5   2   25.20    2.60
   3   5   2   22.80    2.60
  -4  -5  -2   40.00    3.00
   4   5   2   38.50    4.30
  -6   6   2    7.50    3.50
  -6   6   2    3.80    2.30
  -5   6   2   22.00    3.10
  -5   6   2   23.50    2.10
   4  -6  -2  116.09    4.50
  -4   6   2  113.49    4.90
  -4   6   2  118.09    4.20
   3  -6  -2   24.90    2.10
  -3   6   2   28.10    2.30
  -3   6   2   28.60    1.90
  -3   6   2   28.80    2.50
   2  -6  -2  299.27    8.80
  -2   6   2  314.47    9.10
  -2   6   2  325.07    9.20
  -2   6   2  312.17    8.80
   1  -6  -2  123.89    4.00
   1  -6  -2  116.69    4.00
  -1   6   2  113.39    4.00
  -1   6   2  112.99    4.20
  -1   6   2  115.39    4.00
   0  -6  -2  392.36   11.00
   0   6   2  395.96   11.00
   0   6   2  412.56   11.00
   0   6   2  392.36   11.50
   0   6   2  398.06   11.00
  -1  -6  -2   48.60    2.50
   1   6   2   49.00    2.60
   1   6   2   43.80    2.80
   1   6   2   42.50    2.80
  -2  -6  -2    5.00    1.30
   2   6   2    5.80    1.80
   2   6   2    5.10    1.60
  -3  -6  -2   13.60    1.90
   3   6   2   15.00    2.60
  -4  -6  -2    3.50    2.00
   4   6   2    3.10    3.10
  -5   7   2  282.97    9.70
  -5   7   2  272.87    8.50
  -4   7   2   57.59    3.00
  -4   7   2   53.09    3.90
  -3   7   2    2.00    1.20
  -3   7   2    2.20    1.70
  -3   7   2    2.90    1.60
  -2   7   2    3.20    1.20
  -2   7   2    1.70    1.30
   1  -7  -2   22.10    2.20
  -1   7   2   25.00    2.20
  -1   7   2   19.70    2.20
   0  -7  -2   17.10    1.70
   0   7   2   20.30    2.20
   0   7   2   13.30    1.60
  -1  -7  -2    1.50    1.30
   1   7   2    1.30    1.70
  -2  -7  -2   80.09    3.90
   2   7   2   90.19    4.50
  -3  -7  -2    2.70    1.90
   3   7   2    2.80    2.60
  -5   8   2   11.10    3.30
  -5   8   2   12.00    2.20
  -4   8   2    6.50    1.70
  -4   8   2    4.40    2.70
  -3   8   2   82.19    4.20
  -3   8   2   91.09    3.90
  -2   8   2   42.40    2.80
  -2   8   2   33.30    3.20
  -1   8   2    3.10    1.70
  -1   8   2    5.30    1.60
   0  -8  -2  520.65   14.40
   0   8   2  507.85   15.10
  -1  -8  -2    5.00    1.70
   1   8   2    7.40    2.30
  -2  -8  -2   52.49    3.80
   2   8   2   47.90    4.40
  -4   9   2   15.50    2.40
  -3   9   2  103.99    5.60
  -3   9   2  108.39    4.70
  -2   9   2    7.20    2.50
  -2   9   2    7.30    1.90
  -1   9   2   18.40    2.70
  -1   9   2   21.20    2.50
   0   9   2   89.89    4.90
  -1  -9  -2   10.80    2.50
   1   9   2    6.70    3.00
  -3  10   2   34.50    4.10
  -3  10   2   39.90    4.00
  -2  10   2    1.70    2.80
  -2  10   2    0.40    2.30
  -1  10   2   78.59    5.70
   0  10   2   37.80    4.30
   0  10  -3    5.60    2.80
   0  10  -3    6.20    2.30
  -1  10  -3   57.79    5.10
  -1  10  -3   61.09    4.00
  -2  10  -3   30.90    3.80
  -2  10  -3   28.00    2.60
  -3  10  -3  101.79    4.80
  -3  10  -3  107.09    6.20
   2   9  -3   31.90    4.00
   1   9  -3   60.89    4.30
   1   9  -3   70.79    5.00
   0   9  -3   15.00    2.90
   0   9  -3   13.80    2.10
  -1   9  -3   32.60    2.90
  -1   9  -3   32.20    3.40
  -2   9  -3    0.70    2.20
  -2   9  -3    0.40    1.40
  -3   9  -3   16.60    2.60
  -3   9  -3   15.40    3.00
  -3   9  -3   19.10    2.00
   3  -9   3   19.50    2.40
  -4   9  -3   27.30    2.70
  -4   9  -3   23.60    3.70
   4  -9   3   25.00    2.90
   2   8  -3    1.60    2.50
   1   8  -3   39.00    3.30
   1   8  -3   46.40    3.30
   0   8  -3   50.39    3.70
   0   8  -3   61.89    3.10
  -1   8  -3   40.20    2.60
  -1   8  -3   39.90    3.10
  -1   8  -3   43.90    3.20
   1  -8   3   40.10    3.30
   1  -8   3   45.40    3.00
  -2   8  -3   22.70    2.10
  -2   8  -3   22.60    2.60
  -2   8  -3   25.70    3.00
   2  -8   3   24.60    2.10
  -3   8  -3  213.38    7.70
  -3   8  -3  215.38    6.50
  -3   8  -3  215.38    7.50
   3  -8   3  211.18    7.00
  -4   8  -3   18.50    2.90
  -4   8  -3   19.60    1.70
   4  -8   3   19.30    2.30
  -5   8  -3    4.50    1.50
  -5   8  -3    6.00    3.40
   5  -8   3    8.80    2.50
  -3  -7   3    1.00    2.10
   2   7  -3   15.30    2.40
   1   7  -3   22.40    2.50
   1   7  -3   17.40    1.80
   0   7  -3    0.30    1.00
   0   7  -3    1.10    1.40
   0  -7   3    0.20    1.30
   0  -7   3    0.90    1.20
  -1   7  -3  116.19    4.60
  -1   7  -3  122.39    4.60
  -1   7  -3  120.39    4.10
   1  -7   3  111.89    4.60
   1  -7   3  121.99    4.20
  -2   7  -3   -0.20    1.40
  -2   7  -3    1.10    1.40
  -2   7  -3    2.00    0.90
   2  -7   3    1.00    1.00
  -3   7  -3   61.29    3.80
  -3   7  -3   65.49    3.50
  -3   7  -3   69.59    2.70
   3  -7   3   60.99    3.10
  -4   7  -3    5.20    2.00
  -4   7  -3    6.80    1.20
   4  -7   3    6.50    1.70
  -5   7  -3   35.00    4.10
  -5   7  -3   34.60    2.30
   5  -7   3   31.60    2.80
   4   6  -3   12.00    3.10
  -4  -6   3   12.10    2.50
   3   6  -3  248.88    8.40
  -3  -6   3  243.78    7.90
   2   6  -3  529.15   14.90
   2   6  -3  524.85   14.60
   2   6  -3  549.25   15.00
  -2  -6   3  512.15   14.60
  -2  -6   3  537.85   15.00
   1   6  -3   30.60    2.30
   1   6  -3   32.60    2.10
  -1  -6   3   31.40    2.50
  -1  -6   3   32.50    2.50
   0   6  -3  114.19    3.80
   0   6  -3  117.59    4.30
   0  -6   3  114.59    3.90
   0  -6   3  111.49    4.20
  -1   6  -3   34.10    1.80
  -1   6  -3   34.10    2.30
  -1   6  -3   30.20    2.10
   1  -6   3   33.80    2.10
   1  -6   3   34.80    1.90
  -2   6  -3  308.07    9.10
  -2   6  -3  312.57    8.50
  -2   6  -3  319.67    9.30
   2  -6   3  298.57    8.70
  -3   6  -3  115.29    3.70
  -3   6  -3  114.29    4.70
  -3   6  -3  113.79    4.30
   3  -6   3  117.59    4.00
  -4   6  -3    0.00    1.80
  -4   6  -3    0.10    0.80
   4  -6   3    0.30    1.20
  -5   6  -3   69.99    5.00
  -5   6  -3   73.59    2.90
   5  -6   3   75.89    3.80
  -6   6  -3    2.40    1.10
   6  -6   3    2.70    2.30
   4   5  -3   18.30    2.80
  -4  -5   3   18.40    2.30
   3   5  -3   37.40    3.20
  -3  -5   3   37.10    2.70
  -3  -5   3   36.30    3.00
   2   5  -3    5.40    1.40
   2   5  -3    3.70    1.20
   2   5  -3    3.50    1.30
  -2  -5   3    2.70    1.10
  -2  -5   3    3.30    1.30
   1   5  -3   61.19    2.50
   1   5  -3   55.89    2.40
   1   5  -3   56.79    2.70
  -1  -5   3   63.19    2.80
  -1  -5   3   53.39    2.50
  -1  -5   3   63.79    2.50
   0   5  -3   96.19    3.60
   0   5  -3   94.09    3.30
   0   5  -3  102.79    3.10
   0   5  -3   90.89    3.60
   0  -5   3  103.09    3.40
   0  -5   3  109.69    3.40
   0  -5   3  103.99    3.60
  -1   5  -3    1.00    0.80
  -1   5  -3    0.70    0.60
  -1   5  -3    0.80    0.80
   1  -5   3    0.80    0.60
  -2   5  -3  142.59    4.80
  -2   5  -3  131.39    4.10
  -2   5  -3  140.49    4.60
   2  -5   3  140.79    4.20
  -3   5  -3  402.86   11.80
  -3   5  -3  397.96   10.70
  -3   5  -3  412.96   11.20
   3  -5   3  399.56   11.00
  -4   5  -3  221.88    6.20
  -4   5  -3  225.18    7.60
   4  -5   3  218.88    6.70
  -5   5  -3    0.80    2.10
  -5   5  -3    0.40    0.80
   5  -5   3   -0.20    1.30
  -6   5  -3   11.30    1.20
  -6   5  -3   13.20    3.40
   6  -5   3   12.40    2.30
   5   4  -3    0.30    2.40
  -5  -4   3    0.10    2.00
   4   4  -3   35.90    3.60
  -4  -4   3   45.50    3.60
  -4  -4   3   44.60    3.00
   3   4  -3   62.09    3.30
  -3  -4   3   53.39    2.80
  -3  -4   3   50.69    3.10
   2   4  -3   55.69    2.40
   2   4  -3   50.39    2.50
   2   4  -3   50.39    2.40
   2   4  -3   55.19    2.60
  -2  -4   3   55.59    2.70
  -2  -4   3   56.09    2.40
   1   4  -3   99.39    3.30
   1   4  -3  105.19    3.40
   1   4  -3   96.09    3.50
   1   4  -3  109.89    3.40
  -1  -4   3  101.09    3.50
   0   4  -3  359.36    9.00
   0   4  -3  326.37    9.50
   0   4  -3  358.16    9.20
   0   4  -3  334.27    9.60
   0   4  -3  342.07    9.20
   0  -4   3  345.47    9.30
   0  -4   3  344.17    9.50
   0  -4   3  346.67    9.20
  -1   4  -3  153.28    4.60
  -1   4  -3  141.59    4.20
  -1   4  -3  141.89    4.60
   1  -4   3  153.08    4.30
   1  -4   3  150.38    4.20
  -2   4  -3  629.24   17.80
  -2   4  -3  678.73   17.20
  -2   4  -3  677.53   17.60
  -2   4  -3  673.53   17.20
   2  -4   3  677.63   17.10
   2  -4   3  657.83   17.30
  -3   4  -3  163.28    5.60
  -3   4  -3  163.38    4.60
  -3   4  -3  165.88    4.90
   3  -4   3  163.68    4.90
  -4   4  -3  876.11   24.50
  -4   4  -3  914.71   23.20
   4  -4   3  911.41   23.60
  -5   4  -3    4.10    0.90
  -5   4  -3    3.90    2.00
   5  -4   3    3.00    1.30
  -6   4  -3   30.90    4.00
  -6   4  -3   21.40    1.70
   6  -4   3   27.90    2.60
   5   3  -3   15.30    3.00
  -5  -3   3   18.60    3.00
  -5  -3   3   16.90    2.20
   4   3  -3  116.89    5.00
  -4  -3   3  116.19    4.40
  -4  -3   3  121.09    5.10
   3   3  -3  581.54   15.30
   3   3  -3  570.84   15.40
   3   3  -3  572.04   15.80
  -3  -3   3  560.54   15.30
  -3  -3   3  559.04   15.70
   2   3  -3   17.70    1.40
   2   3  -3   17.70    1.40
   2   3  -3   18.00    1.60
   2   3  -3   21.60    1.40
  -2  -3   3   23.60    1.40
  -2  -3   3   19.30    1.40
  -2  -3   3   18.20    1.50
   1   3  -3    9.80    0.90
   1   3  -3    8.90    0.90
   1   3  -3   11.60    1.10
   1   3  -3    9.90    1.00
  -1  -3   3   10.30    1.10
  -1  -3   3    7.40    0.80
   0   3  -3  132.89    4.10
   0   3  -3  135.19    3.80
   0   3  -3  140.79    3.70
   0   3  -3  136.69    4.10
   0  -3   3  134.39    3.80
   0  -3   3  134.69    4.10
  -1   3  -3  173.88    4.70
  -1   3  -3  171.68    5.10
  -1   3  -3  180.88    5.10
  -1   3  -3  176.68    4.70
   1  -3   3  172.88    4.80
  -2   3  -3  385.46   10.20
  -2   3  -3  393.46   10.00
  -2   3  -3  362.76   10.50
  -2   3  -3  371.96    9.90
   2  -3   3  393.66   10.10
   2  -3   3  383.26   10.10
  -3   3  -3   60.39    2.00
  -3   3  -3   68.59    2.90
  -3   3  -3   63.39    2.20
   3  -3   3   62.79    2.30
   3  -3   3   61.19    2.50
  -4   3  -3   16.20    1.20
  -4   3  -3   13.40    1.80
   4  -3   3   16.60    1.80
   4  -3   3   16.30    1.60
  -5   3  -3   22.90    1.50
  -5   3  -3   25.00    2.90
   5  -3   3   24.30    2.20
   5  -3   3   23.00    2.60
  -6   3  -3   70.69    2.60
  -6   3  -3   68.79    5.40
   6  -3   3   67.19    3.90
  -6  -2   3    1.00    3.30
   5   2  -3    1.40    2.00
  -5  -2   3    2.20    1.50
  -5  -2   3    2.30    2.20
   4   2  -3    6.00    1.40
   4   2  -3    6.30    1.90
  -4  -2   3    4.60    1.70
  -4  -2   3    4.30    1.30
   3   2  -3    8.00    1.30
   3   2  -3    6.90    1.10
   3   2  -3    7.70    1.00
  -3  -2   3    6.90    1.00
  -3  -2   3   10.20    1.50
   2   2  -3  220.28    6.30
   2   2  -3  223.58    6.40
   2   2  -3  226.98    6.70
   2   2  -3  231.38    6.30
  -2  -2   3  235.08    6.70
  -2  -2   3  225.28    6.30
   1   2  -3  124.39    3.80
   1   2  -3  134.69    3.80
   1   2  -3  130.99    3.70
   1   2  -3  130.09    3.70
  -1  -2   3  130.39    3.70
  -1  -2   3  127.89    3.70
  -1  -2   3  124.19    3.90
   0   2  -3  123.99    3.60
   0   2  -3  126.09    3.40
   0   2  -3  127.09    3.70
   0   2  -3  124.89    3.30
   0  -2   3  123.99    3.70
  -1   2  -3   46.00    1.30
  -1   2  -3   43.70    1.70
  -1   2  -3   45.90    1.60
  -1   2  -3   45.90    1.30
   1  -2   3   43.00    1.30
   1  -2   3   42.40    1.30
   1  -2   3   41.50    1.30
  -2   2  -3   43.80    1.40
  -2   2  -3   41.50    1.30
  -2   2  -3   40.90    1.90
  -2   2  -3   44.60    1.50
   2  -2   3   41.40    1.50
   2  -2   3   42.60    1.50
   2  -2   3   43.40    1.70
  -3   2  -3  139.09    3.80
  -3   2  -3  131.89    4.50
   3  -2   3  129.79    4.30
   3  -2   3  132.89    4.00
  -4   2  -3  508.15   13.20
  -4   2  -3  508.25   14.30
   4  -2   3  501.75   14.10
   4  -2   3  497.95   13.50
  -5   2  -3   55.69    3.70
   5  -2   3   63.09    3.10
   5  -2   3   65.29    4.10
  -6   2  -3   16.80    3.30
  -6   2  -3   14.50    1.30
   6  -2   3   13.40    2.20
   6  -2   3   11.50    2.90
   6   1  -3   85.69    5.70
  -6  -1   3   83.79    4.40
  -6  -1   3   80.29    5.80
   5   1  -3   53.79    3.70
  -5  -1   3   51.59    3.90
  -5  -1   3   53.99    3.00
   4   1  -3    5.50    1.70
   4   1  -3    6.40    1.30
  -4  -1   3    8.20    1.80
  -4  -1   3    9.70    1.30
   3   1  -3   13.90    1.40
   3   1  -3   17.00    1.60
   3   1  -3   18.10    1.40
  -3  -1   3   14.70    1.30
  -3  -1   3   14.60    1.50
   2   1  -3   45.90    1.70
   2   1  -3   44.10    1.80
   2   1  -3   47.10    1.80
   2   1  -3   47.80    2.00
  -2  -1   3   47.00    1.80
  -2  -1   3   53.29    2.10
   1   1  -3   67.39    2.20
   1   1  -3   63.79    2.10
   1   1  -3   63.89    2.00
   1   1  -3   72.09    2.00
  -1  -1   3   65.49    2.20
  -1  -1   3   67.19    2.00
  -1  -1   3   68.59    2.10
   0   1  -3  316.17    8.10
   0   1  -3  309.07    8.30
   0   1  -3  317.17    8.20
   0   1  -3  320.47    8.30
   0   1  -3  317.97    8.10
   0  -1   3  319.07    8.30
  -1   1  -3    1.50    0.30
  -1   1  -3    1.40    0.40
   1  -1   3    0.90    0.30
   1  -1   3    1.10    0.20
   1  -1   3    1.30    0.20
  -2   1  -3  635.94   15.70
  -2   1  -3  623.84   15.70
  -2   1  -3  624.14   16.30
  -2   1  -3  618.34   15.70
   2  -1   3  604.44   15.80
   2  -1   3  619.54   15.80
   2  -1   3  588.14   16.20
  -3   1  -3  351.36   10.00
  -3   1  -3  357.06    9.30
  -3   1  -3  369.76    9.30
   3  -1   3  340.57   10.00
   3  -1   3  347.57    9.40
  -4   1  -3  330.37    9.00
  -4   1  -3  336.67   10.00
   4  -1   3  336.37    9.30
   4  -1   3  347.07   10.10
  -5   1  -3    9.20    2.20
  -5   1  -3    6.10    1.00
   5  -1   3    8.30    1.50
   5  -1   3    5.50    2.20
  -6   1  -3   41.10    2.20
  -6   1  -3   33.60    4.10
   6  -1   3   44.20    3.60
   6  -1   3   43.70    5.10
   6   0  -3   53.19    4.70
  -6   0   3   50.79    3.50
  -6   0   3   48.10    4.40
   5   0  -3    2.60    1.80
   5   0  -3    2.60    1.60
  -5   0   3    2.10    1.80
  -5   0   3    2.40    1.30
   4   0  -3   66.89    2.90
   4   0  -3   66.19    3.30
  -4   0   3   67.79    2.70
  -4   0   3   59.59    3.20
   3   0  -3    2.10    0.60
   3   0  -3    1.80    0.80
   3   0  -3    1.40    0.90
   3   0  -3    1.60    0.70
  -3   0   3    2.10    0.80
  -3   0   3    1.90    0.90
  -3   0   3    2.80    0.70
  -3   0   3    1.90    0.50
   2   0  -3    8.40    0.70
   2   0  -3    6.90    0.70
   2   0  -3    8.50    0.90
   2   0  -3    7.50    0.70
  -2   0   3    9.60    0.80
  -2   0   3    8.90    1.00
  -2   0   3    8.40    0.80
   1   0  -3  334.07    8.80
   1   0  -3  333.17    8.60
   1   0  -3  329.57    8.70
   1   0  -3  331.17    8.70
  -1   0   3  339.27    8.70
  -1   0   3  327.17    8.60
  -1   0   3  340.07    8.80
   0   0  -3 2073.09   53.99
   0   0  -3 2189.18   53.89
   0   0  -3 2189.18   54.19
   0   0   3 2048.30   53.89
   0   0   3 2156.08   53.89
   0   0   3 2159.88   53.89
  -1   0  -3  290.87    7.70
  -1   0  -3  300.17    7.60
  -1   0  -3  287.57    7.80
   1   0   3  285.97    7.80
   1   0   3  297.17    7.60
   1   0   3  288.67    7.40
   1   0   3  289.87    7.50
  -2   0  -3  573.44   15.10
  -2   0  -3  585.24   14.60
  -2   0  -3  573.24   14.60
   2   0   3  580.84   14.50
   2   0   3  547.95   15.10
   2   0   3  563.14   14.70
  -3   0  -3   43.70    2.20
  -3   0  -3   44.40    1.60
   3   0   3   41.50    1.70
   3   0   3   38.80    2.30
  -4   0  -3   36.10    2.50
  -4   0  -3   42.60    1.80
   4   0   3   44.10    2.20
   4   0   3   44.60    3.00
  -5   0  -3   42.90    2.10
  -5   0  -3   44.90    3.60
   5   0   3   43.60    2.80
   5   0   3   51.69    3.70
  -6   0  -3   13.90    3.30
  -6   0  -3   17.60    1.50
   6   0   3   19.30    2.50
   6   0   3   18.60    3.70
   6  -1  -3    3.70    2.90
  -6   1   3    2.00    1.70
  -6   1   3    2.80    2.50
   5  -1  -3    0.60    1.30
   5  -1  -3   -0.60    1.60
  -5   1   3    0.10    1.20
  -5   1   3    0.90    1.80
   4  -1  -3  128.09    4.30
   4  -1  -3  124.59    4.80
  -4   1   3  121.89    4.20
  -4   1   3  132.59    4.90
   3  -1  -3 1691.63   43.10
   3  -1  -3 1677.13   43.10
   3  -1  -3 1689.13   43.50
  -3   1   3 1726.53   42.80
  -3   1   3 1688.23   43.10
  -3   1   3 1632.74   43.10
  -3   1   3 1700.23   43.60
   2  -1  -3  238.38    6.50
   2  -1  -3  239.28    6.50
   2  -1  -3  233.68    6.70
  -2   1   3  244.18    6.40
  -2   1   3  239.88    6.50
  -2   1   3  239.08    6.80
  -2   1   3  249.68    6.50
   1  -1  -3  917.31   22.80
   1  -1  -3  893.11   22.80
   1  -1  -3  868.71   22.90
  -1   1   3  884.21   22.90
  -1   1   3  895.81   22.70
  -1   1   3  917.31   22.80
  -1   1   3  879.61   22.80
   0  -1  -3  763.22   19.50
   0  -1  -3  762.82   19.30
   0   1   3  767.92   19.30
   0   1   3  746.63   19.50
  -1  -1  -3 1096.99   27.20
  -1  -1  -3 1056.59   27.10
  -1  -1  -3 1061.59   27.50
  -1  -1  -3 1093.09   27.10
   1   1   3 1076.99   27.50
   1   1   3 1023.50   27.10
   1   1   3 1070.99   27.20
  -2  -1  -3  199.88    5.30
  -2  -1  -3  190.28    5.20
  -2  -1  -3  197.98    5.60
   2   1   3  194.48    5.30
   2   1   3  184.18    5.80
   2   1   3  198.08    5.20
  -3  -1  -3  329.87    9.30
  -3  -1  -3  326.77    8.70
   3   1   3  334.17    8.90
   3   1   3  313.97    9.50
  -4  -1  -3  417.16   11.40
  -4  -1  -3  432.16   12.30
   4   1   3  434.96   12.60
   4   1   3  421.16   11.70
  -5  -1  -3    0.70    1.80
  -5  -1  -3    0.30    1.00
   5   1   3   -0.70    2.20
   5   1   3    0.20    1.30
  -6  -1  -3   -0.40    1.30
   6   1   3   -0.70    3.80
   6   1   3   -0.10    2.20
   6  -2  -3   62.59    5.00
  -6   2   3   62.29    4.60
  -6   2   3   66.59    3.60
   5  -2  -3   25.30    2.50
   5  -2  -3   25.20    2.70
  -5   2   3   25.50    3.10
  -5   2   3   22.50    2.20
   4  -2  -3  149.29    5.20
   4  -2  -3  143.69    4.70
  -4   2   3  144.89    4.60
  -4   2   3  148.39    5.30
   3  -2  -3   76.29    2.60
   3  -2  -3   65.49    2.80
   3  -2  -3   74.49    2.70
  -3   2   3   75.19    3.00
  -3   2   3   65.09    2.50
  -3   2   3   77.49    2.40
  -3   2   3   70.59    2.50
   2  -2  -3    0.50    0.50
   2  -2  -3    0.10    0.50
   2  -2  -3    0.30    0.50
  -2   2   3    0.20    0.50
  -2   2   3    0.40    0.50
  -2   2   3    0.40    0.50
  -2   2   3    0.40    0.40
   1  -2  -3   11.70    0.70
   1  -2  -3   11.20    0.80
   1  -2  -3   12.30    0.80
  -1   2   3   12.40    0.80
  -1   2   3   12.30    0.80
   0  -2  -3  279.67    7.30
   0  -2  -3  288.17    7.50
   0   2   3  264.37    7.50
   0   2   3  284.47    7.40
   0   2   3  285.17    7.40
  -1  -2  -3   42.00    1.40
  -1  -2  -3   36.00    1.30
   1   2   3   33.70    1.50
   1   2   3   38.10    1.40
  -2  -2  -3 3025.20   78.79
  -2  -2  -3 3106.49   78.99
  -2  -2  -3 3102.89   78.79
   2   2   3 3129.69   78.89
   2   2   3 3125.39   78.99
   2   2   3 3094.79   79.39
   2   2   3 3210.98   78.79
  -3  -2  -3   77.29    3.00
  -3  -2  -3   68.09    2.50
   3   2   3   70.79    2.70
   3   2   3   78.29    3.50
  -4  -2  -3   92.69    4.00
  -4  -2  -3   91.79    3.20
   4   2   3   88.39    4.20
   4   2   3   83.79    3.50
  -5  -2  -3    5.00    1.30
   5   2   3    5.80    2.60
   5   2   3    4.50    1.60
   6  -3  -3   35.00    3.70
  -6   3   3   28.60    3.50
  -6   3   3   29.40    2.90
   5  -3  -3    5.90    2.00
   5  -3  -3    5.50    1.50
  -5   3   3    5.60    1.30
  -5   3   3    6.00    2.10
   4  -3  -3    0.50    1.30
   4  -3  -3    0.50    0.90
  -4   3   3    0.40    0.80
  -4   3   3    0.40    1.10
   3  -3  -3  183.78    5.40
   3  -3  -3  191.08    5.50
   3  -3  -3  185.08    5.70
  -3   3   3  184.78    5.30
  -3   3   3  176.38    5.40
  -3   3   3  180.08    5.80
   2  -3  -3 1484.25   38.20
   2  -3  -3 1496.05   38.20
   2  -3  -3 1460.95   38.30
  -2   3   3 1499.25   38.40
  -2   3   3 1522.75   38.30
  -2   3   3 1482.85   38.20
  -2   3   3 1519.05   38.10
   1  -3  -3 2964.10   77.19
   1  -3  -3 3069.59   77.09
   1  -3  -3 3096.09   77.09
  -1   3   3 3029.60   77.29
  -1   3   3 3111.59   77.09
  -1   3   3 3043.90   77.09
  -1   3   3 3018.00   77.09
   0  -3  -3   29.10    1.40
   0  -3  -3   34.90    1.30
   0  -3  -3   35.30    1.40
   0  -3  -3   35.00    1.10
   0   3   3   36.10    1.30
   0   3   3   31.40    1.40
   0   3   3   28.80    1.50
  -1  -3  -3  165.78    4.60
  -1  -3  -3  156.48    5.00
  -1  -3  -3  170.18    4.50
   1   3   3  160.48    4.70
   1   3   3  160.88    4.80
   1   3   3  160.28    5.00
   1   3   3  168.08    4.70
  -2  -3  -3  386.16   10.50
  -2  -3  -3  394.76   10.60
   2   3   3  397.46   10.70
   2   3   3  393.96   10.60
   2   3   3  388.76   11.10
  -3  -3  -3  141.69    4.30
  -3  -3  -3  133.69    4.70
   3   3   3  136.29    4.50
   3   3   3  139.29    5.30
  -4  -3  -3    4.90    1.20
   4   3   3    4.10    1.40
   4   3   3    5.40    2.10
  -5  -3  -3   10.50    1.60
   5   3   3   11.00    2.80
   5   3   3    8.50    2.10
  -6   4   3   47.40    3.30
  -6   4   3   41.60    4.30
   5  -4  -3   24.00    2.60
   5  -4  -3   20.70    2.10
  -5   4   3   25.00    2.90
  -5   4   3   25.30    2.20
   4  -4  -3  393.26   11.10
   4  -4  -3  411.96   11.40
  -4   4   3  393.36   11.70
  -4   4   3  388.86   11.00
   3  -4  -3  176.08    5.20
   3  -4  -3  172.28    5.30
   3  -4  -3  170.28    5.30
  -3   4   3  172.78    5.20
  -3   4   3  168.58    5.10
  -3   4   3  163.98    5.50
   2  -4  -3  460.15   11.90
   2  -4  -3  451.05   11.80
   2  -4  -3  444.06   11.90
  -2   4   3  405.96   11.80
  -2   4   3  443.96   12.00
  -2   4   3  451.15   12.00
   1  -4  -3    0.70    0.60
   1  -4  -3    0.80    0.60
   1  -4  -3    1.40    0.60
  -1   4   3    1.50    0.80
  -1   4   3    1.00    0.60
  -1   4   3    1.10    0.50
  -1   4   3    0.90    0.50
   0  -4  -3    5.10    0.80
   0  -4  -3    4.90    0.60
   0  -4  -3    2.60    0.70
   0  -4  -3    4.00    0.70
   0   4   3    3.70    0.90
   0   4   3    3.30    0.60
   0   4   3    4.00    0.80
   0   4   3    3.30    0.60
  -1  -4  -3  193.28    5.20
  -1  -4  -3  181.48    5.40
   1   4   3  186.68    5.50
   1   4   3  190.58    5.70
   1   4   3  182.78    5.70
   1   4   3  182.98    5.40
  -2  -4  -3  150.68    4.60
   2   4   3  147.29    4.70
   2   4   3  147.19    4.90
   2   4   3  154.18    5.20
  -3  -4  -3  391.16   10.80
   3   4   3  398.56   11.70
   3   4   3  384.06   11.00
  -4  -4  -3  360.06   10.20
   4   4   3  352.46   10.60
   4   4   3  367.36   11.60
  -5  -4  -3   -1.20    1.50
   5   4   3    1.10    3.00
  -6   5   3    5.50    2.80
  -6   5   3    6.10    1.80
  -5   5   3   57.59    3.90
  -5   5   3   59.29    3.00
   4  -5  -3   -0.10    1.10
  -4   5   3    0.50    1.00
  -4   5   3    0.90    1.60
   3  -5  -3   24.60    1.90
   3  -5  -3   27.80    1.90
  -3   5   3   22.50    1.70
  -3   5   3   29.80    2.30
  -3   5   3   23.70    1.90
   2  -5  -3  159.98    4.80
   2  -5  -3  150.98    4.80
   2  -5  -3  154.98    4.70
  -2   5   3  151.68    4.70
  -2   5   3  157.98    5.10
  -2   5   3  151.48    4.90
   1  -5  -3  185.08    5.50
   1  -5  -3  192.88    5.60
   1  -5  -3  194.88    5.60
  -1   5   3  187.68    5.50
  -1   5   3  187.48    5.50
  -1   5   3  192.98    5.60
  -1   5   3  185.38    5.90
   0  -5  -3   79.89    2.90
   0  -5  -3   74.89    3.00
   0   5   3   82.79    2.90
   0   5   3   81.39    2.90
   0   5   3   83.79    3.00
   0   5   3   77.29    3.20
  -1  -5  -3    7.20    1.00
   1   5   3   10.70    1.40
   1   5   3    8.50    1.20
   1   5   3    8.90    1.30
  -2  -5  -3   40.50    2.20
   2   5   3   41.10    2.40
   2   5   3   43.80    2.60
   2   5   3   40.80    2.90
  -3  -5  -3   56.89    2.80
   3   5   3   50.59    3.80
   3   5   3   63.79    3.30
  -4  -5  -3    4.50    1.60
   4   5   3    5.20    2.50
   4   5   3    6.10    2.70
  -6   6   3   15.10    3.80
  -6   6   3   11.30    2.80
  -5   6   3   52.99    3.20
  -5   6   3   48.00    4.40
  -4   6   3    4.90    1.90
  -4   6   3    4.50    1.40
   3  -6  -3  415.46   11.40
  -3   6   3  415.66   11.30
  -3   6   3  402.56   11.80
  -3   6   3  399.16   11.70
   2  -6  -3  583.94   15.70
   2  -6  -3  596.24   15.70
  -2   6   3  565.94   15.70
  -2   6   3  585.54   16.10
  -2   6   3  587.44   15.80
   1  -6  -3  166.58    5.30
  -1   6   3  171.28    5.70
  -1   6   3  174.08    5.30
   0  -6  -3    1.00    0.90
   0  -6  -3    0.30    1.10
   0   6   3    1.50    1.20
   0   6   3    1.30    1.10
   0   6   3    0.90    1.00
   0   6   3    1.10    1.00
  -1  -6  -3   29.60    2.00
   1   6   3   28.20    2.50
   1   6   3   29.40    2.30
   1   6   3   30.60    2.40
  -2  -6  -3    6.20    1.40
   2   6   3    7.90    1.90
   2   6   3    5.10    1.80
   2   6   3    4.70    1.50
  -3  -6  -3    4.60    1.60
   3   6   3    6.50    2.20
  -4  -6  -3   21.20    2.40
   4   6   3   21.50    3.70
  -5   7   3   24.90    3.30
  -5   7   3   28.60    3.00
  -4   7   3   13.60    2.50
  -4   7   3   12.20    1.70
  -3   7   3   87.59    3.60
  -3   7   3   82.29    4.00
  -3   7   3   83.09    4.00
  -2   7   3  148.79    4.90
  -2   7   3  135.49    5.30
   1  -7  -3  177.68    5.70
  -1   7   3  170.08    6.10
  -1   7   3  183.28    5.70
   0  -7  -3   37.00    2.40
   0   7   3   33.40    3.00
  -1  -7  -3   32.70    2.50
   1   7   3   26.00    2.90
  -2  -7  -3    2.20    1.50
   2   7   3    1.20    2.10
   2   7   3    1.70    2.00
  -3  -7  -3   -0.70    1.80
   3   7   3    1.00    2.70
  -5   8   3    2.10    2.00
  -5   8   3   -0.30    3.10
  -4   8   3   80.69    4.00
  -3   8   3   18.50    2.50
  -3   8   3   24.50    2.20
  -2   8   3   75.39    4.30
  -2   8   3   85.89    3.80
  -1   8   3   21.70    2.40
  -1   8   3   16.30    2.40
   0  -8  -3    2.60    1.60
   0   8   3    3.50    2.00
  -1  -8  -3    1.10    1.60
   1   8   3   -0.20    2.20
  -2  -8  -3   18.00    2.40
   2   8   3   16.00    3.00
  -4   9   3   51.19    3.90
  -3   9   3   98.39    4.70
  -3   9   3   94.29    5.40
  -2   9   3   90.69    5.10
  -2   9   3   97.89    4.50
  -1   9   3   35.00    4.00
   0  -9  -3   84.39    4.50
   0   9   3   88.59    5.40
  -1  -9  -3  294.57    9.60
   1   9   3  301.37   10.50
  -3  10   3    0.20    2.30
  -3  10   3    1.40    3.10
  -2  10   3   12.80    2.70
  -2  10   3   16.20    3.50
  -1  10   3    4.00    2.70
   0  10   3    8.00    3.60
   0  10  -4    7.90    2.90
   0  10  -4    8.50    2.40
  -1  10  -4   34.90    3.90
  -1  10  -4   42.10    3.70
  -2  10  -4    2.20    1.80
  -2  10  -4    2.20    2.40
  -3  10  -4  110.69    5.90
   2   9  -4   40.80    4.30
   1   9  -4   42.00    3.90
   1   9  -4   42.70    4.50
   0   9  -4    4.50    2.20
   0   9  -4    7.30    1.90
  -1   9  -4    8.60    2.50
  -1   9  -4    8.80    1.70
  -2   9  -4  168.48    9.20
  -2   9  -4  178.88    5.80
  -2   9  -4  162.78    6.90
   2  -9   4  178.08    7.10
   2  -9   4  181.38    6.40
  -3   9  -4   57.69    3.00
  -3   9  -4   58.99    4.50
  -3   9  -4   58.89    4.70
   3  -9   4   61.09    4.00
  -4   9  -4   36.10    2.70
  -4   9  -4   41.00    4.40
   4  -9   4   33.30    3.10
   2   8  -4   80.49    4.60
   1   8  -4   14.50    2.50
   1   8  -4   13.40    2.00
   0   8  -4    1.00    1.30
   0   8  -4    0.60    1.80
  -1   8  -4   57.49    3.70
  -1   8  -4   55.79    3.70
  -1   8  -4   56.29    2.90
   1  -8   4   59.89    3.30
   1  -8   4   57.19    3.70
  -2   8  -4   59.99    2.80
  -2   8  -4   55.49    3.70
  -2   8  -4   63.49    3.90
   2  -8   4   58.19    3.20
  -3   8  -4    0.00    1.80
  -3   8  -4    0.10    1.10
  -3   8  -4   -0.70    2.10
   3  -8   4    0.20    1.40
  -4   8  -4   19.00    2.90
  -4   8  -4   15.50    1.60
   4  -8   4   20.90    2.30
  -5   8  -4   82.69    6.20
  -5   8  -4   81.69    3.30
   5  -8   4   82.59    5.00
   2   7  -4   56.69    3.90
   2   7  -4   59.09    3.60
   1   7  -4    1.00    1.60
   1   7  -4    1.30    1.20
  -1  -7   4    0.60    1.60
   0   7  -4  130.49    5.20
   0   7  -4  128.09    4.50
   0  -7   4  134.49    5.00
   0  -7   4  138.89    4.80
  -1   7  -4    6.20    1.50
  -1   7  -4    8.30    1.20
  -1   7  -4    5.60    1.60
   1  -7   4    8.30    1.40
   1  -7   4    7.90    1.70
  -2   7  -4    2.80    1.00
  -2   7  -4    2.40    1.40
  -2   7  -4    3.50    1.50
   2  -7   4    3.20    1.10
  -3   7  -4   36.90    2.10
  -3   7  -4   36.60    2.90
  -3   7  -4   43.90    3.40
   3  -7   4   34.30    2.50
  -4   7  -4   85.49    3.10
  -4   7  -4   78.39    4.70
   4  -7   4   79.89    3.80
  -5   7  -4   38.60    2.10
  -5   7  -4   41.70    4.30
   5  -7   4   33.00    3.40
   4   6  -4   52.89    4.80
  -4  -6   4   55.49    4.10
   3   6  -4    0.00    1.90
  -3  -6   4   -0.20    1.70
   2   6  -4   12.00    1.70
   2   6  -4   11.50    2.00
  -2  -6   4    9.00    1.90
   1   6  -4    5.40    1.20
   1   6  -4    7.30    1.60
  -1  -6   4    7.10    1.50
  -1  -6   4    5.20    1.20
   0   6  -4   43.20    2.10
   0   6  -4   42.00    2.50
   0  -6   4   41.10    2.50
   0  -6   4   42.30    2.20
  -1   6  -4   12.30    1.50
  -1   6  -4   11.40    1.60
  -1   6  -4   12.20    1.30
   1  -6   4   11.80    1.20
   1  -6   4   12.10    1.60
  -2   6  -4  646.74   16.70
  -2   6  -4  625.94   17.60
  -2   6  -4  632.84   17.40
   2  -6   4  646.94   16.90
  -3   6  -4    0.60    1.30
  -3   6  -4   -0.10    1.20
  -3   6  -4    0.20    0.70
   3  -6   4    0.50    0.90
  -4   6  -4    1.80    1.90
  -4   6  -4    1.20    0.80
   4  -6   4    2.50    1.30
  -5   6  -4   45.50    4.50
  -5   6  -4   43.70    2.00
   5  -6   4   40.60    3.20
   4   5  -4    0.70    2.10
  -4  -5   4   -0.20    1.80
   3   5  -4   73.79    3.90
  -3  -5   4   74.39    4.00
  -3  -5   4   78.19    3.60
   2   5  -4  135.29    4.80
   2   5  -4  149.39    5.00
   2   5  -4  148.69    5.10
  -2  -5   4  138.99    5.10
  -2  -5   4  145.39    4.80
   1   5  -4  389.16   11.10
   1   5  -4  420.26   11.10
   1   5  -4  388.56   11.40
  -1  -5   4  408.36   11.10
  -1  -5   4  415.06   11.50
  -1  -5   4  418.36   11.20
   0   5  -4   10.50    1.00
   0   5  -4    8.30    1.20
   0   5  -4    6.60    1.10
   0  -5   4    9.00    1.20
   0  -5   4   10.40    1.80
   0  -5   4    9.50    1.00
  -1   5  -4    4.10    0.70
  -1   5  -4    3.40    0.90
  -1   5  -4    4.00    1.10
   1  -5   4    5.30    0.80
  -2   5  -4   58.99    2.90
  -2   5  -4   57.09    2.00
  -2   5  -4   60.69    2.70
   2  -5   4   53.29    2.20
  -3   5  -4  154.88    5.00
  -3   5  -4  151.58    5.60
  -3   5  -4  151.28    4.40
   3  -5   4  155.48    4.70
  -4   5  -4    5.00    1.70
  -4   5  -4    5.10    0.80
   4  -5   4    5.10    1.10
  -5   5  -4   76.89    4.50
  -5   5  -4   74.49    2.50
   5  -5   4   74.79    3.60
  -6   5  -4   53.39    5.40
   6  -5   4   62.49    4.20
   5   4  -4    7.90    2.70
  -5  -4   4   12.00    2.30
  -5  -4   4    9.40    3.10
   4   4  -4  442.86   13.60
  -4  -4   4  467.25   13.50
  -4  -4   4  442.96   12.80
   3   4  -4  231.68    7.50
   3   4  -4  218.18    7.00
  -3  -4   4  221.18    7.40
  -3  -4   4  249.08    7.10
   2   4  -4   27.40    2.00
   2   4  -4   25.30    1.80
   2   4  -4   24.20    1.90
  -2  -4   4   29.30    2.00
  -2  -4   4   30.80    1.90
  -2  -4   4   29.00    1.90
   1   4  -4  626.04   16.80
   1   4  -4  658.63   16.70
   1   4  -4  627.14   17.00
   1   4  -4  637.94   16.70
  -1  -4   4  645.74   16.80
  -1  -4   4  640.24   17.10
  -1  -4   4  634.44   16.80
   0   4  -4   12.40    1.20
   0   4  -4   12.00    1.20
   0   4  -4   15.80    0.90
   0   4  -4   12.40    1.00
   0  -4   4   17.90    1.30
   0  -4   4   15.90    1.20
   0  -4   4   17.20    1.10
  -1   4  -4   39.20    2.00
  -1   4  -4   47.00    1.60
  -1   4  -4   41.80    1.50
  -1   4  -4   42.40    2.00
   1  -4   4   44.60    1.70
  -2   4  -4   -0.30    0.70
  -2   4  -4    0.40    0.50
  -2   4  -4    0.00    0.80
  -2   4  -4    0.60    0.40
   2  -4   4    0.00    0.50
  -3   4  -4   -0.10    0.80
  -3   4  -4   -0.60    1.10
  -3   4  -4    0.00    0.40
   3  -4   4    1.40    0.70
  -4   4  -4  579.74   16.50
  -4   4  -4  591.14   15.10
   4  -4   4  580.74   15.60
  -5   4  -4   35.80    3.40
  -5   4  -4   40.60    1.60
   5  -4   4   37.30    2.60
  -6   4  -4    3.60    2.90
   6  -4   4    7.10    2.00
   5   3  -4    8.00    2.80
  -5  -3   4    6.50    2.80
  -5  -3   4    7.20    2.00
   4   3  -4   17.80    2.50
  -4  -3   4   18.40    1.90
  -4  -3   4   21.60    2.50
   3   3  -4  118.59    4.20
   3   3  -4  121.09    4.60
  -3  -3   4  125.19    4.20
  -3  -3   4  126.89    4.60
   2   3  -4    0.40    0.80
   2   3  -4    0.60    0.70
   2   3  -4    0.30    0.80
   2   3  -4    0.60    0.70
  -2  -3   4    0.80    0.70
  -2  -3   4    0.00    0.90
  -2  -3   4    0.20    0.70
   1   3  -4  458.85   12.20
   1   3  -4  473.05   12.20
   1   3  -4  468.65   12.30
   1   3  -4  452.45   12.40
  -1  -3   4  453.35   12.20
  -1  -3   4  447.16   12.50
  -1  -3   4  480.45   12.20
   0   3  -4  330.77    9.10
   0   3  -4  328.67    9.10
   0   3  -4  321.77    8.70
   0   3  -4  347.97    8.70
   0  -3   4  328.17    9.10
   0  -3   4  336.87    8.80
   0  -3   4  335.67    9.00
  -1   3  -4  151.28    4.40
  -1   3  -4  150.08    4.00
  -1   3  -4  154.68    4.00
  -1   3  -4  142.19    4.50
   1  -3   4  149.29    4.10
  -2   3  -4  135.19    3.70
  -2   3  -4  132.49    4.50
  -2   3  -4  138.79    3.70
  -2   3  -4  145.89    4.10
   2  -3   4  137.09    3.90
   2  -3   4  137.99    3.90
   2  -3   4  133.09    3.90
  -3   3  -4   20.20    1.80
  -3   3  -4   20.10    0.90
  -3   3  -4   20.70    1.00
   3  -3   4   18.80    1.20
   3  -3   4   18.10    1.60
  -4   3  -4    5.50    0.60
  -4   3  -4    5.20    1.50
   4  -3   4    3.50    1.40
   4  -3   4    5.20    1.00
  -5   3  -4  183.38    5.10
  -5   3  -4  191.38    7.20
   5  -3   4  199.68    7.00
   5  -3   4  182.08    6.00
  -6   3  -4    5.20    2.70
   6  -3   4    6.50    1.90
  -6  -2   4    0.80    3.60
  -6  -2   4    1.30    3.30
   5   2  -4    4.60    2.50
  -5  -2   4    5.70    1.70
  -5  -2   4    3.60    2.10
   4   2  -4   76.19    3.80
  -4  -2   4   83.59    3.40
  -4  -2   4   79.99    4.00
   3   2  -4  242.88    7.50
   3   2  -4  249.88    7.10
   3   2  -4  254.07    7.20
   3   2  -4  239.68    7.00
  -3  -2   4  239.98    7.10
  -3  -2   4  249.88    7.60
   2   2  -4  509.65   14.00
   2   2  -4  515.15   13.70
   2   2  -4  519.25   13.70
   2   2  -4  520.35   13.70
  -2  -2   4  511.45   13.70
  -2  -2   4  524.85   13.70
  -2  -2   4  534.85   14.10
   1   2  -4    6.50    0.80
   1   2  -4    6.00    0.60
   1   2  -4    5.30    0.70
  -1  -2   4    8.20    0.90
  -1  -2   4    5.60    0.60
   0   2  -4   97.19    2.70
   0   2  -4   97.99    3.10
   0   2  -4   95.19    3.00
   0   2  -4  101.89    2.70
   0  -2   4   96.89    2.70
  -1   2  -4  831.42   20.80
  -1   2  -4  823.32   21.30
  -1   2  -4  830.82   21.40
   1  -2   4  832.72   21.00
   1  -2   4  802.32   21.00
   1  -2   4  836.32   21.00
  -2   2  -4  132.49    4.30
  -2   2  -4  137.89    3.50
  -2   2  -4  144.09    3.90
  -2   2  -4  138.09    3.50
   2  -2   4  133.89    3.80
   2  -2   4  134.69    4.10
   2  -2   4  131.99    3.80
  -3   2  -4  123.59    3.40
  -3   2  -4  130.99    3.40
  -3   2  -4  119.79    4.30
   3  -2   4  126.59    3.70
   3  -2   4  123.59    4.20
  -4   2  -4    0.90    0.50
  -4   2  -4    0.80    1.30
   4  -2   4    1.60    0.80
   4  -2   4    0.90    1.30
  -5   2  -4   45.70    3.70
  -5   2  -4   49.50    1.90
   5  -2   4   53.69    3.90
   5  -2   4   52.39    2.80
  -6   2  -4  154.58    7.30
   6  -2   4  152.98    5.90
   6  -2   4  169.88    7.50
   6   1  -4   66.69    5.70
  -6  -1   4   59.69    5.40
  -6  -1   4   59.79    4.10
   5   1  -4    0.30    1.80
  -5  -1   4    0.30    1.40
  -5  -1   4   -0.30    1.70
   4   1  -4  134.59    4.70
   4   1  -4  132.49    5.30
  -4  -1   4  145.69    5.40
  -4  -1   4  141.59    4.70
   3   1  -4  116.19    4.20
   3   1  -4  123.29    3.70
   3   1  -4  133.59    4.00
  -3  -1   4  116.19    3.90
  -3  -1   4  121.69    3.90
  -3  -1   4  113.99    4.30
   2   1  -4  281.77    7.50
   2   1  -4  269.77    7.80
   2   1  -4  272.27    7.50
   2   1  -4  278.17    7.50
  -2  -1   4  281.07    7.50
  -2  -1   4  274.57    7.50
  -2  -1   4  277.57    7.90
   1   1  -4   65.69    2.00
   1   1  -4   64.69    2.00
   1   1  -4   62.59    2.10
   1   1  -4   65.59    2.10
  -1  -1   4   62.69    2.20
  -1  -1   4   66.59    2.00
  -1  -1   4   63.09    2.00
   0   1  -4   84.59    2.50
   0   1  -4   87.79    2.20
   0   1  -4   87.79    2.40
   0   1  -4   83.69    2.20
   0   1  -4   87.09    2.60
   0  -1   4   80.99    2.30
   0  -1   4   82.59    2.30
  -1   1  -4  448.56   11.50
  -1   1  -4  429.26   11.60
  -1   1  -4  452.05   11.40
   1  -1   4  432.56   11.50
  -2   1  -4  241.48    6.90
  -2   1  -4  251.77    6.40
   2  -1   4  243.88    6.40
   2  -1   4  233.78    6.40
   2  -1   4  238.48    6.80
  -3   1  -4    0.60    0.40
  -3   1  -4    0.70    0.30
  -3   1  -4    0.80    0.90
   3  -1   4    0.50    0.90
   3  -1   4    0.50    0.50
  -4   1  -4   26.40    1.20
  -4   1  -4   24.20    2.20
   4  -1   4   23.00    1.60
   4  -1   4   25.40    2.30
  -5   1  -4   13.40    2.40
  -5   1  -4   15.80    1.30
   5  -1   4   17.50    2.60
   5  -1   4   16.50    1.70
  -6   1  -4    0.70    2.80
  -6   1  -4    0.40    1.20
   6  -1   4    1.10    1.80
   6  -1   4    2.70    3.10
   6   0  -4    3.60    3.00
  -6   0   4    1.50    2.80
  -6   0   4    3.90    1.90
   5   0  -4    8.90    2.10
  -5   0   4    8.80    2.20
  -5   0   4   11.60    1.70
   4   0  -4   78.19    3.60
   4   0  -4   77.19    3.20
  -4   0   4   74.79    3.00
  -4   0   4   74.59    3.60
   3   0  -4   87.89    3.50
   3   0  -4   94.09    3.20
   3   0  -4   93.79    3.20
   3   0  -4   90.59    2.90
  -3   0   4  100.09    2.90
  -3   0   4   89.19    3.60
  -3   0   4   86.19    3.10
  -3   0   4   93.99    3.10
   2   0  -4   44.00    1.60
   2   0  -4   39.80    1.80
   2   0  -4   43.60    1.60
   2   0  -4   41.80    1.60
  -2   0   4   40.50    1.60
  -2   0   4   38.70    1.80
  -2   0   4   44.40    1.60
   1   0  -4  403.46   10.30
   1   0  -4  386.16   10.50
   1   0  -4  388.76   10.40
  -1   0   4  413.56   10.30
  -1   0   4  399.86   10.50
  -1   0   4  399.16   10.30
   0   0  -4    6.00    0.50
   0   0  -4    6.40    0.50
   0   0  -4    5.50    0.60
   0   0   4    7.50    0.30
   0   0   4    6.20    0.50
   0   0   4    5.80    0.30
  -1   0  -4   85.89    2.40
  -1   0  -4   87.39    2.50
  -1   0  -4   86.89    2.70
   1   0   4   83.59    2.40
   1   0   4   79.59    2.60
   1   0   4   83.69    2.20
   1   0   4   81.89    2.20
  -2   0  -4   76.19    2.10
  -2   0  -4   74.29    2.10
  -2   0  -4   76.59    2.60
   2   0   4   79.29    2.80
   2   0   4   75.99    2.30
   2   0   4   74.39    2.20
   2   0   4   75.19    2.30
  -3   0  -4  528.05   13.40
  -3   0  -4  519.95   13.40
  -3   0  -4  534.65   14.20
   3   0   4  508.55   14.30
   3   0   4  504.85   13.60
  -4   0  -4  135.79    4.00
  -4   0  -4  137.69    5.10
   4   0   4  135.79    4.40
   4   0   4  140.99    5.30
  -5   0  -4    1.70    2.00
  -5   0  -4    1.30    0.80
   5   0   4    1.40    2.10
   5   0   4    2.60    1.40
  -6   0  -4   61.39    5.30
  -6   0  -4   63.39    2.40
   6   0   4   71.09    5.50
   6   0   4   67.39    4.20
   6  -1  -4   22.40    3.50
  -6   1   4   24.20    2.40
  -6   1   4   26.60    3.70
   5  -1  -4    1.80    1.90
  -5   1   4    1.50    1.20
  -5   1   4    0.90    1.80
   4  -1  -4   18.80    2.10
   4  -1  -4   14.70    1.50
  -4   1   4   16.80    1.60
  -4   1   4   14.50    1.90
   3  -1  -4   58.89    2.60
   3  -1  -4   56.79    2.20
   3  -1  -4   53.49    2.20
  -3   1   4   56.49    2.00
  -3   1   4   48.10    2.50
  -3   1   4   60.19    2.20
  -3   1   4   53.19    2.20
   2  -1  -4   19.90    1.10
   2  -1  -4   24.90    1.10
   2  -1  -4   20.40    1.30
  -2   1   4   21.30    1.10
  -2   1   4   22.20    1.10
  -2   1   4   22.70    1.10
  -2   1   4   21.20    1.30
   1  -1  -4  316.47    8.00
   1  -1  -4  301.97    8.00
   1  -1  -4  304.67    8.20
  -1   1   4  308.07    8.00
  -1   1   4  301.17    8.10
  -1   1   4  309.27    8.20
  -1   1   4  304.27    8.00
   0  -1  -4  170.98    4.40
   0  -1  -4  171.58    4.80
   0  -1  -4  172.18    4.50
   0   1   4  171.78    4.70
   0   1   4  165.48    4.50
   0   1   4  171.78    4.50
  -1  -1  -4 2307.97   59.49
  -1  -1  -4 2322.57   59.89
  -1  -1  -4 2472.15   59.59
   1   1   4 2309.67   59.49
   1   1   4 2312.97   59.49
   1   1   4 2432.16   59.69
   1   1   4 2329.47   59.89
  -2  -1  -4  283.07    7.70
  -2  -1  -4  278.47    7.30
  -2  -1  -4  277.47    7.30
   2   1   4  280.67    7.40
   2   1   4  282.97    7.40
   2   1   4  261.17    7.90
  -3  -1  -4  501.15   13.50
  -3  -1  -4  484.05   12.90
   3   1   4  505.45   13.10
   3   1   4  491.85   13.80
  -4  -1  -4   16.80    2.00
  -4  -1  -4   19.30    1.40
   4   1   4   17.50    2.10
   4   1   4   14.00    1.40
  -5  -1  -4   24.70    1.80
  -5  -1  -4   29.40    3.40
   5   1   4   28.30    2.60
   5   1   4   25.40    3.00
  -6  -1  -4   72.19    2.90
   6   1   4   69.09    4.60
   6  -2  -4   16.30    3.20
  -6   2   4   13.10    2.10
  -6   2   4    9.20    3.00
   5  -2  -4    0.60    1.90
  -5   2   4    1.80    1.30
  -5   2   4    1.40    1.80
   4  -2  -4   18.40    1.60
   4  -2  -4   11.70    1.80
  -4   2   4   12.70    1.80
  -4   2   4    9.90    1.20
   3  -2  -4    1.50    0.80
   3  -2  -4    0.80    0.70
   3  -2  -4    0.40    0.70
  -3   2   4    0.60    0.70
  -3   2   4    1.00    0.60
  -3   2   4    1.40    1.00
  -3   2   4    1.00    0.70
   2  -2  -4 1718.93   44.50
   2  -2  -4 1722.33   44.30
   2  -2  -4 1782.92   44.30
  -2   2   4 1759.42   44.30
  -2   2   4 1683.03   44.50
  -2   2   4 1753.02   44.30
  -2   2   4 1759.52   44.30
   1  -2  -4  111.99    3.20
   1  -2  -4  112.39    3.40
   1  -2  -4  111.69    3.20
  -1   2   4  113.59    3.20
  -1   2   4  107.69    3.20
  -1   2   4  113.39    3.20
   0  -2  -4   91.29    2.80
   0  -2  -4   90.89    2.60
   0   2   4   94.49    2.60
   0   2   4   82.99    2.80
  -1  -2  -4    0.30    0.30
  -1  -2  -4    0.10    0.50
  -1  -2  -4    0.10    0.40
  -1  -2  -4    0.20    0.40
   1   2   4    0.20    0.50
   1   2   4    0.10    0.50
   1   2   4    0.20    0.30
  -2  -2  -4   82.99    2.60
  -2  -2  -4   85.09    2.60
  -2  -2  -4   83.09    2.80
   2   2   4   79.09    2.70
   2   2   4   86.19    3.30
   2   2   4   84.69    2.70
  -3  -2  -4    6.60    0.80
  -3  -2  -4    5.40    1.10
   3   2   4    6.90    1.60
   3   2   4    5.40    0.90
  -4  -2  -4   16.90    1.50
  -4  -2  -4   19.70    2.40
   4   2   4   14.20    1.60
   4   2   4   17.50    2.30
  -5  -2  -4   39.90    2.30
   5   2   4   35.80    3.10
   5   2   4   43.40    4.50
   6  -3  -4   27.70    3.40
  -6   3   4   27.00    3.70
  -6   3   4   30.90    3.10
   5  -3  -4  178.98    6.60
  -5   3   4  185.08    5.90
  -5   3   4  168.18    6.70
   4  -3  -4  188.98    5.90
   4  -3  -4  203.28    6.40
  -4   3   4  187.78    5.90
  -4   3   4  195.38    6.60
   3  -3  -4  208.18    6.00
   3  -3  -4  203.78    6.20
   3  -3  -4  204.38    6.00
  -3   3   4  200.38    6.40
  -3   3   4  197.28    6.00
  -3   3   4  216.48    6.00
   2  -3  -4  138.09    4.20
   2  -3  -4  137.69    4.30
  -2   3   4  142.79    4.30
  -2   3   4  144.79    4.40
  -2   3   4  141.09    4.20
   1  -3  -4    3.80    0.60
   1  -3  -4    3.90    0.60
   1  -3  -4    3.20    0.60
  -1   3   4    4.00    0.50
  -1   3   4    3.70    0.60
  -1   3   4    4.50    0.70
   0  -3  -4  258.97    7.00
   0  -3  -4  263.27    7.30
   0  -3  -4  279.97    7.10
   0   3   4  250.07    7.30
   0   3   4  253.87    7.00
   0   3   4  260.27    7.10
  -1  -3  -4   24.70    1.00
  -1  -3  -4   21.70    1.60
  -1  -3  -4   25.80    1.20
   1   3   4   24.20    1.60
   1   3   4   24.90    1.50
   1   3   4   23.60    1.40
   1   3   4   22.60    1.30
  -2  -3  -4  108.69    3.40
  -2  -3  -4  115.19    3.60
   2   3   4  109.39    3.70
   2   3   4  108.89    4.10
   2   3   4  119.59    3.60
  -3  -3  -4 2414.16   62.69
   3   3   4 2478.55   62.99
   3   3   4 2508.35   63.79
  -4  -3  -4   30.20    2.00
   4   3   4   28.70    2.50
   4   3   4   30.50    3.20
  -5  -3  -4   -0.60    1.20
   5   3   4    0.90    2.50
   5   3   4    0.60    1.90
  -6   4   4   10.50    3.20
  -6   4   4   14.00    2.10
   5  -4  -4    3.30    1.90
  -5   4   4   -0.20    1.90
  -5   4   4    2.70    1.30
   4  -4  -4   17.10    1.90
   4  -4  -4   20.00    1.80
  -4   4   4   17.80    2.20
  -4   4   4   17.40    1.80
   3  -4  -4    3.00    1.00
   3  -4  -4    2.10    1.00
   3  -4  -4    2.30    0.80
  -3   4   4    3.00    1.10
  -3   4   4    1.60    0.80
  -3   4   4    1.90    0.80
   2  -4  -4   98.69    3.40
   2  -4  -4  101.89    3.30
   2  -4  -4   98.09    3.30
  -2   4   4  103.59    3.30
  -2   4   4  104.49    3.50
  -2   4   4  102.19    3.50
   1  -4  -4    3.50    0.80
   1  -4  -4    2.10    0.70
   1  -4  -4    2.20    0.70
  -1   4   4    3.60    0.70
  -1   4   4    2.70    0.70
  -1   4   4    2.20    0.60
  -1   4   4    3.10    0.80
   0  -4  -4  272.37    7.70
   0  -4  -4  288.17    8.00
   0  -4  -4  292.37    7.80
   0  -4  -4  285.67    7.40
   0   4   4  285.37    7.80
   0   4   4  281.57    8.10
   0   4   4  285.87    7.80
  -1  -4  -4    1.60    0.90
  -1  -4  -4    1.30    0.60
   1   4   4    1.30    0.90
   1   4   4    1.50    0.70
   1   4   4    1.20    0.80
  -2  -4  -4   75.59    2.80
   2   4   4   80.39    3.10
   2   4   4   77.99    3.50
   2   4   4   75.69    2.90
  -3  -4  -4   24.80    1.80
   3   4   4   22.50    2.20
   3   4   4   26.00    3.00
  -4  -4  -4    1.20    1.20
   4   4   4   -0.10    2.00
   4   4   4   -0.10    1.60
  -5  -4  -4    1.90    1.60
   5   4   4    2.00    2.30
   5   4   4    3.70    3.00
  -6   5   4   22.30    3.50
  -5   5   4   12.20    2.50
   4  -5  -4   30.20    2.80
  -4   5   4   29.50    2.80
   3  -5  -4 1026.20   26.70
   3  -5  -4 1033.70   26.80
  -3   5   4 1018.70   26.70
  -3   5   4 1014.40   26.90
  -3   5   4 1024.70   27.10
   2  -5  -4  542.25   14.80
   2  -5  -4  553.44   14.80
   2  -5  -4  554.34   14.80
  -2   5   4  564.14   14.90
  -2   5   4  553.14   14.80
  -2   5   4  550.54   14.80
  -2   5   4  563.84   15.10
   1  -5  -4    4.50    0.90
   1  -5  -4    4.70    0.90
   1  -5  -4    4.20    0.90
  -1   5   4    3.70    0.80
  -1   5   4    4.00    0.80
  -1   5   4    2.00    0.80
  -1   5   4    4.20    1.00
   0  -5  -4  454.75   12.40
   0  -5  -4  432.46   12.10
   0   5   4  462.95   12.10
   0   5   4  435.46   12.50
   0   5   4  468.75   12.30
   0   5   4  445.46   12.20
  -1  -5  -4   17.20    1.50
   1   5   4   18.10    1.90
   1   5   4   17.90    1.70
   1   5   4   16.50    1.80
  -2  -5  -4    1.60    0.90
   2   5   4    0.50    1.10
   2   5   4    1.70    1.30
   2   5   4    2.40    1.50
  -3  -5  -4   42.60    2.50
   3   5   4   34.90    3.50
   3   5   4   38.40    2.80
  -4  -5  -4   76.09    3.60
   4   5   4   73.29    5.40
   4   5   4   76.39    4.40
  -6   6   4    1.40    3.30
  -6   6   4    0.50    2.40
  -5   6   4   22.20    2.20
  -5   6   4   27.20    3.30
  -4   6   4  112.99    5.00
  -4   6   4  112.09    4.20
  -3   6   4   27.50    2.40
  -3   6   4   25.70    2.10
  -3   6   4   20.60    2.20
   2  -6  -4   50.19    2.60
  -2   6   4   51.99    2.70
  -2   6   4   58.79    3.00
  -2   6   4   56.99    2.60
   1  -6  -4    8.60    1.30
   1  -6  -4    8.40    1.30
  -1   6   4    8.20    1.40
  -1   6   4    9.20    1.30
  -1   6   4    7.20    1.20
   0  -6  -4  153.48    5.00
   0  -6  -4  157.28    5.30
   0   6   4  162.78    5.50
   0   6   4  159.28    5.20
   0   6   4  156.98    5.10
  -1  -6  -4    2.00    1.00
   1   6   4    0.60    1.30
   1   6   4    1.10    1.20
   1   6   4   -0.60    1.30
  -2  -6  -4   49.99    2.70
   2   6   4   50.09    3.30
   2   6   4   47.20    3.50
   2   6   4   45.60    3.00
  -3  -6  -4   24.70    2.60
   3   6   4   31.80    3.60
   3   6   4   24.50    3.10
  -4  -6  -4    0.10    2.00
   4   6   4    0.10    3.20
  -5   7   4   35.70    3.70
  -5   7   4   33.70    3.20
  -4   7   4    1.80    1.40
  -4   7   4    2.20    1.90
  -3   7   4   88.89    3.70
  -3   7   4   82.49    4.10
   2  -7  -4  221.48    7.10
  -2   7   4  223.68    7.40
  -2   7   4  223.98    6.90
   1  -7  -4   50.89    2.70
  -1   7   4   50.69    3.10
  -1   7   4   48.40    3.10
   0  -7  -4   27.30    2.30
   0   7   4   30.60    2.80
  -1  -7  -4   53.19    3.00
   1   7   4   57.79    3.70
  -2  -7  -4   83.99    3.80
   2   7   4   86.29    4.90
   2   7   4   83.69    4.80
  -3  -7  -4    0.50    1.80
   3   7   4    1.90    3.00
  -5   8   4    2.40    2.10
  -4   8   4  216.98    7.20
  -3   8   4  278.87    8.70
  -3   8   4  288.67    9.40
  -2   8   4  151.88    5.30
  -2   8   4  132.09    5.80
   1  -8  -4   80.69    3.90
  -1   8   4   77.69    4.10
   0  -8  -4   66.79    3.60
   0   8   4   61.89    4.10
  -1  -8  -4    6.50    1.80
   1   8   4    3.80    2.30
  -2  -8  -4    7.80    2.10
  -4   9   4    2.70    2.00
  -3   9   4   51.69    4.50
  -3   9   4   57.99    3.80
  -2   9   4   24.10    2.90
  -1   9   4   69.29    4.50
   0  -9  -4    0.00    1.90
   0   9   4    0.40    2.20
  -1  -9  -4   45.10    4.10
   1   9   4   46.00    4.90
  -3  10   4   87.79    5.20
  -3  10   4   89.69    6.20
  -2  10   4  170.48    7.50
  -1  10   4   84.69    5.60
   0 -10  -4    0.50    2.70
   0  10  -5    2.20    2.20
   0  10  -5    3.90    3.10
  -1  10  -5   54.59    5.10
  -1  10  -5   57.49    3.80
  -2  10  -5   -0.70    2.80
  -2  10  -5   -0.70    1.80
  -3  10  -5    4.00    3.20
   2   9  -5   -1.00    3.30
   2   9  -5    1.50    3.30
   1   9  -5   22.10    3.30
   1   9  -5   20.50    2.50
   0   9  -5   62.69    4.60
   0   9  -5   61.39    3.60
  -1   9  -5  169.48    7.00
  -1   9  -5  175.08    5.90
  -2   9  -5   35.60    3.90
  -2   9  -5   39.60    2.70
  -2   9  -5   28.60    3.30
   2  -9   5   37.80    4.10
   2  -9   5   34.80    3.30
  -3   9  -5    4.30    2.50
  -3   9  -5    0.70    1.40
  -3   9  -5    2.30    2.70
   3  -9   5    3.60    2.00
  -4   9  -5  119.49    6.80
  -4   9  -5  115.99    4.20
   4  -9   5  124.09    5.60
   2   8  -5   -1.00    2.40
   2   8  -5   -0.60    1.90
   1   8  -5   44.80    3.90
   1   8  -5   42.00    3.20
   0   8  -5  175.18    6.60
   0   8  -5  181.48    5.90
   0  -8   5  180.08    6.50
  -1   8  -5   -0.40    1.10
  -1   8  -5   -0.30    1.70
  -1   8  -5    0.60    1.50
   1  -8   5    0.00    1.70
   1  -8   5   -0.10    1.40
  -2   8  -5   17.20    2.50
  -2   8  -5   17.80    1.60
  -2   8  -5   17.00    2.40
   2  -8   5   17.80    2.60
   2  -8   5   20.60    1.90
  -3   8  -5   79.49    4.40
  -3   8  -5   84.29    4.80
  -3   8  -5   84.19    3.20
   3  -8   5   80.49    3.80
  -4   8  -5    0.70    1.00
  -4   8  -5    0.20    2.20
   4  -8   5   -0.10    1.70
  -5   8  -5    2.30    3.70
   5  -8   5    0.90    2.20
   2   7  -5   27.00    2.90
   2   7  -5   27.60    2.90
   1   7  -5   15.60    1.80
   1   7  -5   13.50    2.00
  -1  -7   5   14.70    2.20
   0   7  -5   31.00    2.10
   0   7  -5   31.60    2.80
   0  -7   5   31.70    2.70
   0  -7   5   30.20    2.40
  -1   7  -5   54.89    2.50
  -1   7  -5   58.29    3.30
  -1   7  -5   55.79    3.30
   1  -7   5   57.89    3.40
  -2   7  -5  194.08    5.80
  -2   7  -5  192.28    6.60
  -2   7  -5  207.78    7.00
   2  -7   5  204.38    6.20
  -3   7  -5   52.39    2.20
  -3   7  -5   45.80    3.60
  -3   7  -5   49.90    3.30
   3  -7   5   48.10    2.80
  -4   7  -5   59.89    2.40
  -4   7  -5   64.39    4.40
   4  -7   5   61.69    3.30
  -5   7  -5   25.40    3.50
   5  -7   5   32.10    2.70
   4   6  -5    2.20    2.60
   3   6  -5  125.69    6.00
  -3  -6   5  130.19    5.60
   2   6  -5  142.99    5.00
   2   6  -5  134.19    5.30
  -2  -6   5  139.99    5.40
   1   6  -5    1.30    1.20
   1   6  -5    2.00    1.00
  -1  -6   5    1.50    1.40
  -1  -6   5    1.50    1.10
   0   6  -5   38.90    2.40
   0   6  -5   40.30    2.00
   0  -6   5   38.70    2.60
   0  -6   5   37.50    2.20
  -1   6  -5  142.99    5.10
  -1   6  -5  145.09    4.40
  -1   6  -5  147.29    5.10
   1  -6   5  143.39    5.10
   1  -6   5  138.59    4.50
  -2   6  -5   26.90    1.50
  -2   6  -5   28.10    2.10
  -2   6  -5   31.20    2.60
   2  -6   5   31.80    1.90
  -3   6  -5    7.90    1.60
  -3   6  -5    7.60    0.90
  -3   6  -5    5.10    1.60
   3  -6   5    7.70    1.20
  -4   6  -5  114.29    3.40
  -4   6  -5  114.79    5.20
   4  -6   5  107.09    4.10
  -5   6  -5   55.29    4.70
   5  -6   5   53.49    3.30
   4   5  -5   79.29    4.80
  -4  -5   5   77.59    4.20
  -4  -5   5   79.89    5.00
   3   5  -5   94.29    4.00
   3   5  -5   90.19    4.30
  -3  -5   5   85.69    3.90
  -3  -5   5   90.99    4.40
   2   5  -5   27.60    2.30
   2   5  -5   24.70    2.10
   2   5  -5   28.60    2.10
  -2  -5   5   30.20    2.60
   1   5  -5  242.98    7.60
   1   5  -5  264.27    7.10
   1   5  -5  238.28    7.10
  -1  -5   5  256.47    7.20
  -1  -5   5  240.48    7.50
   0   5  -5    6.20    1.20
   0   5  -5    5.40    0.80
   0   5  -5    7.00    1.10
   0  -5   5    6.60    1.30
   0  -5   5    7.60    1.00
  -1   5  -5   63.19    2.90
  -1   5  -5   65.69    2.70
  -1   5  -5   60.69    2.10
   1  -5   5   61.89    2.30
  -2   5  -5   50.09    2.30
  -2   5  -5   39.70    2.40
  -2   5  -5   45.60    1.70
   2  -5   5   40.80    1.90
  -3   5  -5  438.96   11.90
  -3   5  -5  424.16   12.50
  -3   5  -5  427.16   11.10
   3  -5   5  415.86   11.50
  -4   5  -5   20.10    2.50
  -4   5  -5   16.90    1.00
   4  -5   5   15.40    1.50
  -5   5  -5   10.00    2.70
   5  -5   5   10.10    1.70
  -6   5  -5   64.89    7.60
   6  -5   5   55.99    4.00
   5   4  -5   18.80    3.40
  -5  -4   5   18.20    3.20
  -5  -4   5   19.90    2.60
   4   4  -5    2.50    1.80
  -4  -4   5    2.70    1.90
  -4  -4   5    2.30    1.60
   3   4  -5    0.50    1.20
   3   4  -5   -0.10    1.40
  -3  -4   5   -0.40    1.20
  -3  -4   5    0.10    1.50
   2   4  -5   45.90    2.20
   2   4  -5   45.70    2.50
   2   4  -5   49.40    2.50
  -2  -4   5   48.80    2.40
  -2  -4   5   48.90    2.60
  -2  -4   5   51.69    2.30
   1   4  -5  262.37    7.30
   1   4  -5  263.07    7.40
   1   4  -5  266.07    7.70
  -1  -4   5  262.57    7.70
  -1  -4   5  263.67    7.40
   0   4  -5  997.30   26.80
   0   4  -5  988.90   26.70
   0   4  -5 1032.20   26.30
   0   4  -5 1041.90   26.10
   0  -4   5 1024.80   26.80
   0  -4   5 1008.30   26.30
   0  -4   5 1077.29   26.40
  -1   4  -5  243.28    6.20
  -1   4  -5  227.98    6.70
  -1   4  -5  224.58    6.90
  -1   4  -5  232.38    6.20
   1  -4   5  223.48    6.30
  -2   4  -5   35.80    1.30
  -2   4  -5   35.00    1.20
  -2   4  -5   34.90    1.90
  -2   4  -5   33.50    2.00
   2  -4   5   34.40    1.50
  -3   4  -5   65.09    1.90
  -3   4  -5   63.79    2.60
  -3   4  -5   63.09    3.20
  -3   4  -5   62.09    1.90
   3  -4   5   64.79    2.40
  -4   4  -5   10.90    2.00
  -4   4  -5   10.40    0.70
   4  -4   5   12.20    1.30
  -5   4  -5   42.40    3.60
   5  -4   5   51.39    2.80
  -6   4  -5   33.80    4.00
   6  -4   5   36.80    3.40
   5   3  -5    0.60    2.30
  -5  -3   5    0.10    2.50
  -5  -3   5    0.90    1.80
   4   3  -5   45.60    3.20
  -4  -3   5   47.70    2.90
  -4  -3   5   46.80    3.30
   3   3  -5  696.73   18.30
   3   3  -5  689.23   18.40
   3   3  -5  691.53   18.80
  -3  -3   5  678.63   18.30
  -3  -3   5  684.33   18.90
   2   3  -5   17.30    1.50
   2   3  -5   14.00    1.40
   2   3  -5   14.90    1.40
   2   3  -5   18.40    1.60
  -2  -3   5   17.40    1.40
  -2  -3   5   15.60    1.60
  -2  -3   5   14.30    1.40
   1   3  -5   16.40    1.10
   1   3  -5   13.00    1.00
   1   3  -5   14.50    1.20
   1   3  -5   15.00    1.10
  -1  -3   5   17.30    1.40
  -1  -3   5   14.50    1.00
  -1  -3   5   16.10    1.20
   0   3  -5  309.87    7.80
   0   3  -5  300.47    8.30
   0   3  -5  295.27    7.90
   0   3  -5  290.87    8.40
   0  -3   5  299.97    8.40
   0  -3   5  300.17    7.90
  -1   3  -5   69.29    1.90
  -1   3  -5   65.59    2.40
  -1   3  -5   68.49    1.90
  -1   3  -5   65.19    2.50
   1  -3   5   67.59    2.00
   1  -3   5   66.69    1.90
   1  -3   5   66.49    2.10
  -2   3  -5    0.30    0.70
  -2   3  -5    0.90    0.60
   2  -3   5    0.40    0.50
   2  -3   5    0.70    0.50
   2  -3   5    0.50    0.40
  -3   3  -5  223.88    7.00
   3  -3   5  227.78    6.30
   3  -3   5  227.88    6.60
  -4   3  -5  157.28    5.80
   4  -3   5  160.68    4.90
   4  -3   5  158.98    5.50
  -5   3  -5  746.33   20.90
   5  -3   5  727.43   19.60
  -6   3  -5    3.10    3.10
   6  -3   5    2.70    1.80
  -6  -2   5   82.89    5.30
  -6  -2   5   80.29    5.60
   5   2  -5   61.19    4.30
  -5  -2   5   62.89    4.20
  -5  -2   5   69.19    3.70
   4   2  -5  188.48    6.60
  -4  -2   5  180.48    6.50
  -4  -2   5  195.08    6.00
   3   2  -5   19.40    1.70
   3   2  -5   20.10    1.90
   3   2  -5   23.60    1.80
   3   2  -5   22.00    1.60
  -3  -2   5   20.70    1.70
  -3  -2   5   24.00    2.10
   2   2  -5  164.18    4.80
   2   2  -5  157.68    5.00
   2   2  -5  153.08    4.80
   2   2  -5  164.78    4.70
  -2  -2   5  164.98    4.80
  -2  -2   5  159.88    5.10
  -2  -2   5  166.68    4.80
   1   2  -5  265.27    7.10
   1   2  -5  264.37    7.40
   1   2  -5  259.97    7.20
   1   2  -5  266.77    7.30
  -1  -2   5  256.97    7.40
  -1  -2   5  270.27    7.10
  -1  -2   5  277.67    7.20
   0   2  -5   98.69    2.60
   0   2  -5   90.79    2.90
   0   2  -5   95.19    2.60
   0   2  -5   95.99    2.70
   0   2  -5   87.29    3.00
   0  -2   5   92.09    2.60
   0  -2   5   92.29    3.00
  -1   2  -5  202.78    5.30
  -1   2  -5  197.58    5.70
  -1   2  -5  196.48    5.50
   1  -2   5  195.88    5.30
   1  -2   5  196.38    5.10
   1  -2   5  193.18    5.10
  -2   2  -5 1251.87   33.00
  -2   2  -5 1305.27   32.60
   2  -2   5 1310.37   32.80
   2  -2   5 1271.17   32.40
   2  -2   5 1243.78   32.40
  -3   2  -5    8.50    1.30
   3  -2   5    7.10    0.70
   3  -2   5    8.40    1.20
  -4   2  -5   30.60    2.70
   4  -2   5   37.00    1.90
   4  -2   5   39.90    2.70
  -5   2  -5   28.40    3.00
   5  -2   5   22.20    2.20
   5  -2   5   28.80    3.50
  -6   2  -5   12.10    3.30
   6  -2   5   10.40    2.00
   6  -2   5   10.10    3.30
   6   1  -5  198.38    8.60
  -6  -1   5  180.98    8.30
  -6  -1   5  198.28    7.10
   5   1  -5    0.50    2.10
  -5  -1   5    1.60    1.50
  -5  -1   5    2.20    1.90
   4   1  -5   62.09    3.50
  -4  -1   5   67.19    3.00
  -4  -1   5   57.69    3.30
   3   1  -5    0.10    0.80
   3   1  -5    0.10    0.70
   3   1  -5   -0.10    0.80
   3   1  -5    0.60    1.00
  -3  -1   5   -0.30    0.80
  -3  -1   5    0.10    1.00
  -3  -1   5    0.00    0.80
   2   1  -5  513.05   13.90
   2   1  -5  505.45   13.50
   2   1  -5  516.25   13.50
   2   1  -5  513.85   13.60
  -2  -1   5  524.65   13.60
  -2  -1   5  508.95   13.90
  -2  -1   5  531.75   13.60
   1   1  -5 2944.31   72.59
   1   1  -5 2836.12   72.59
   1   1  -5 2892.01   72.39
  -1  -1   5 2882.21   72.39
  -1  -1   5 2893.61   72.69
  -1  -1   5 2746.13   72.39
   0   1  -5   25.50    1.10
   0   1  -5   25.20    1.00
   0   1  -5   25.50    1.10
   0  -1   5   22.70    1.10
   0  -1   5   25.50    0.80
   0  -1   5   24.60    0.80
  -1   1  -5   10.80    0.80
  -1   1  -5   12.50    0.80
  -1   1  -5   12.30    0.90
   1  -1   5    9.20    0.80
  -2   1  -5   16.40    1.30
  -2   1  -5   15.40    0.90
   2  -1   5   11.50    0.70
   2  -1   5   12.00    0.70
   2  -1   5   11.70    1.10
  -3   1  -5   13.00    1.60
   3  -1   5   12.80    1.00
   3  -1   5   12.10    1.50
  -4   1  -5    4.00    1.40
  -4   1  -5    4.10    0.40
   4  -1   5    3.40    0.90
   4  -1   5    3.30    1.40
  -5   1  -5  185.58    7.00
   5  -1   5  182.98    6.00
   5  -1   5  196.38    7.20
  -6   1  -5  163.48    7.60
   6  -1   5  168.88    7.90
   6  -1   5  168.88    6.20
   6   0  -5    1.70    3.00
  -6   0   5    2.80    1.90
  -6   0   5    1.60    2.80
   5   0  -5   35.30    3.60
  -5   0   5   46.80    3.00
  -5   0   5   39.00    3.60
   4   0  -5   49.99    2.60
   4   0  -5   54.79    3.20
  -4   0   5   52.89    2.50
  -4   0   5   47.00    3.10
   3   0  -5    8.70    1.10
   3   0  -5   10.70    1.40
   3   0  -5    7.80    0.90
   3   0  -5   11.40    1.10
  -3   0   5    7.60    1.00
  -3   0   5    9.50    1.00
  -3   0   5    8.50    1.20
  -3   0   5    8.90    1.00
   2   0  -5   28.20    1.30
   2   0  -5   26.10    1.50
   2   0  -5   28.30    1.30
   2   0  -5   32.80    1.40
  -2   0   5   28.80    1.40
  -2   0   5   31.10    1.30
  -2   0   5   28.50    1.60
   1   0  -5  260.47    6.80
   1   0  -5  255.07    7.10
   1   0  -5  267.17    7.10
  -1   0   5  260.47    6.90
  -1   0   5  257.97    7.10
   0   0  -5  126.79    3.50
   0   0  -5  123.39    3.50
   0   0   5  120.29    3.20
   0   0   5  118.19    3.40
   0   0   5  122.89    3.20
  -1   0  -5  904.31   22.50
  -1   0  -5  898.31   22.60
  -1   0  -5  865.51   22.70
   1   0   5  883.91   22.50
   1   0   5  847.52   22.70
  -2   0  -5  739.53   19.20
   2   0   5  731.53   18.80
   2   0   5  745.33   18.80
   2   0   5  736.43   19.30
   2   0   5  714.73   18.70
  -3   0  -5   36.10    2.10
  -3   0  -5   37.90    1.20
  -3   0  -5   36.50    1.20
   3   0   5   34.00    2.20
   3   0   5   34.50    1.60
  -4   0  -5    0.20    1.40
  -4   0  -5    0.20    0.50
   4   0   5    0.50    0.80
   4   0   5    0.20    1.60
  -5   0  -5   82.79    2.50
  -5   0  -5   71.49    4.40
   5   0   5   80.29    4.50
   5   0   5   76.29    3.50
   6   0   5   40.80    4.80
   6   0   5   35.80    3.70
   6  -1  -5    3.30    2.60
  -6   1   5    2.50    2.50
  -6   1   5    1.20    1.80
   5  -1  -5   43.80    3.60
  -5   1   5   45.30    2.80
  -5   1   5   43.80    3.70
   4  -1  -5  132.99    5.00
   4  -1  -5  138.89    4.50
  -4   1   5  131.29    5.00
  -4   1   5  129.19    4.50
   3  -1  -5    0.10    0.90
   3  -1  -5    0.20    0.70
   3  -1  -5    1.30    0.70
  -3   1   5    0.60    0.90
  -3   1   5    0.70    0.70
  -3   1   5    1.00    0.60
  -3   1   5    0.90    0.80
   2  -1  -5    1.10    0.60
   2  -1  -5    1.80    0.60
   2  -1  -5    1.10    0.50
  -2   1   5    1.40    0.50
  -2   1   5    1.00    0.50
  -2   1   5    1.20    0.60
  -2   1   5    1.30    0.50
   1  -1  -5    2.20    0.40
   1  -1  -5    2.00    0.50
  -1   1   5    3.10    0.50
  -1   1   5    4.00    0.60
  -1   1   5    3.60    0.40
  -1   1   5    3.20    0.50
   0  -1  -5  631.24   15.90
   0  -1  -5  606.44   16.30
   0  -1  -5  648.14   15.90
   0   1   5  634.24   16.30
   0   1   5  610.04   16.00
   0   1   5  633.74   16.00
   0   1   5  618.44   15.90
  -1  -1  -5  229.68    5.80
  -1  -1  -5  231.18    5.90
  -1  -1  -5  234.68    6.10
  -1  -1  -5  232.18    6.50
   1   1   5  218.98    6.00
   1   1   5  229.48    6.30
   1   1   5  224.08    6.50
   1   1   5  231.18    6.00
  -2  -1  -5  144.29    3.90
  -2  -1  -5  149.99    3.90
  -2  -1  -5  150.88    4.40
   2   1   5  145.69    4.20
   2   1   5  144.29    4.10
   2   1   5  142.79    4.10
  -3  -1  -5   19.10    1.00
  -3  -1  -5   20.00    1.70
   3   1   5   19.30    1.40
   3   1   5   19.70    2.00
  -4  -1  -5   -0.20    1.30
  -4  -1  -5    0.00    0.60
   4   1   5    0.40    1.50
   4   1   5   -0.20    0.90
  -5  -1  -5    8.80    1.00
   5   1   5    6.30    2.30
   5   1   5    6.90    1.50
   6  -2  -5    1.30    2.70
  -6   2   5    1.20    2.50
  -6   2   5    2.80    1.90
   5  -2  -5   19.20    2.50
  -5   2   5   14.50    1.70
  -5   2   5   16.80    2.50
   4  -2  -5   65.29    3.30
   4  -2  -5   63.79    2.80
  -4   2   5   63.19    3.30
  -4   2   5   64.29    2.80
   3  -2  -5   86.09    3.40
   3  -2  -5   87.79    3.10
   3  -2  -5   88.29    3.10
  -3   2   5   85.39    3.40
  -3   2   5   85.09    3.10
  -3   2   5   93.59    3.00
  -3   2   5   91.69    3.10
   2  -2  -5  934.71   24.70
   2  -2  -5  929.71   24.50
   2  -2  -5  971.80   24.50
  -2   2   5  974.10   24.50
  -2   2   5  961.20   24.60
  -2   2   5  928.41   24.70
  -2   2   5  962.00   24.50
   1  -2  -5    1.90    0.50
   1  -2  -5    1.70    0.40
   1  -2  -5    2.80    0.50
  -1   2   5    2.50    0.50
  -1   2   5    3.30    0.50
  -1   2   5    3.60    0.50
  -1   2   5    3.30    0.60
   0  -2  -5   51.19    2.00
   0  -2  -5   55.29    1.70
   0   2   5   55.29    2.00
   0   2   5   54.69    1.70
  -1  -2  -5   38.20    1.30
  -1  -2  -5   40.90    1.30
  -1  -2  -5   34.60    1.80
  -1  -2  -5   39.30    1.40
   1   2   5   44.10    1.90
   1   2   5   39.90    1.40
   1   2   5   36.10    1.60
  -2  -2  -5 1673.13   42.90
  -2  -2  -5 1710.23   43.20
  -2  -2  -5 1713.33   43.00
   2   2   5 1686.13   43.70
   2   2   5 1684.63   43.10
   2   2   5 1687.93   43.20
  -3  -2  -5  355.86   10.10
  -3  -2  -5  364.56    9.60
   3   2   5  353.86    9.90
   3   2   5  374.66   10.80
  -4  -2  -5   13.20    1.10
   4   2   5   13.30    1.60
   4   2   5   17.20    2.50
  -5  -2  -5   73.49    2.80
   5   2   5   75.49    5.30
   5   2   5   76.39    3.90
   6  -3  -5    3.20    2.60
  -6   3   5    3.80    2.60
  -6   3   5    4.40    1.90
   5  -3  -5    0.20    1.70
  -5   3   5    0.60    1.70
  -5   3   5    0.90    1.30
   4  -3  -5   10.40    1.30
   4  -3  -5    7.20    1.50
  -4   3   5   10.30    1.40
  -4   3   5    8.00    1.60
   3  -3  -5   14.20    1.40
   3  -3  -5   10.90    1.20
   3  -3  -5   13.60    1.50
  -3   3   5   11.90    1.10
  -3   3   5   11.70    1.20
  -3   3   5   12.10    1.50
  -3   3   5   12.50    1.30
   2  -3  -5   10.60    1.20
  -2   3   5   12.40    1.20
  -2   3   5   12.90    1.00
  -2   3   5   11.20    1.10
  -2   3   5   10.40    1.10
   1  -3  -5  366.26    9.50
   1  -3  -5  346.97    9.70
   1  -3  -5  357.66    9.50
  -1   3   5  361.66    9.50
  -1   3   5  371.66    9.60
  -1   3   5  362.26    9.50
  -1   3   5  346.27    9.80
   0  -3  -5  130.49    4.10
   0  -3  -5  127.99    3.70
   0   3   5  136.09    3.80
   0   3   5  128.19    4.10
   0   3   5  129.59    3.80
  -1  -3  -5   80.59    3.10
  -1  -3  -5   90.29    2.40
  -1  -3  -5   83.39    2.60
  -1  -3  -5   99.89    3.10
   1   3   5   84.49    3.10
   1   3   5   82.59    2.80
   1   3   5   82.89    3.00
   1   3   5   85.39    2.80
  -2  -3  -5   75.39    2.50
   2   3   5   70.09    2.60
   2   3   5   81.99    2.90
   2   3   5   68.69    3.10
  -3  -3  -5    2.20    0.80
   3   3   5    3.10    1.70
   3   3   5    2.90    1.00
  -4  -3  -5   18.30    1.60
   4   3   5   11.60    1.70
   4   3   5   12.70    2.60
  -5  -3  -5   39.70    2.40
   5   3   5   42.20    4.40
   5   3   5   41.30    3.60
   6  -4  -5    6.50    3.00
  -6   4   5    7.90    3.10
  -6   4   5    7.00    2.00
   5  -4  -5   26.30    3.10
  -5   4   5   22.80    2.70
  -5   4   5   25.60    2.50
   4  -4  -5  144.49    5.10
  -4   4   5  139.59    4.80
  -4   4   5  141.99    5.40
   3  -4  -5  152.08    4.90
   3  -4  -5  147.29    4.70
   3  -4  -5  146.69    4.80
  -3   4   5  146.89    4.80
  -3   4   5  148.99    5.00
  -3   4   5  148.89    4.70
   2  -4  -5  110.19    3.70
   2  -4  -5  112.09    3.80
   2  -4  -5  117.59    3.70
  -2   4   5  117.69    3.80
  -2   4   5  119.89    3.90
  -2   4   5  111.69    3.70
   1  -4  -5  748.43   19.40
   1  -4  -5  711.93   19.20
   1  -4  -5  750.02   19.20
  -1   4   5  723.33   19.50
  -1   4   5  737.43   19.30
  -1   4   5  760.02   19.10
  -1   4   5  732.63   19.20
   0  -4  -5  851.11   22.50
   0  -4  -5  865.21   22.20
   0   4   5  836.32   22.60
   0   4   5  849.72   22.20
   0   4   5  892.01   22.30
  -1  -4  -5   15.90    1.80
  -1  -4  -5   17.90    1.30
   1   4   5   16.40    1.60
   1   4   5   19.30    1.40
   1   4   5   20.70    1.80
  -2  -4  -5   51.99    2.20
   2   4   5   51.49    2.50
   2   4   5   55.49    2.40
   2   4   5   52.59    2.90
  -3  -4  -5    5.30    1.10
   3   4   5    6.00    2.00
   3   4   5    6.60    1.40
  -4  -4  -5  527.35   14.50
   4   4   5  563.34   15.10
   4   4   5  529.55   16.10
   5   4   5   16.70    2.80
  -6   5   5   35.80    4.20
  -5   5   5  129.69    5.80
  -5   5   5  122.69    4.80
   4  -5  -5    1.70    1.50
  -4   5   5    1.30    1.40
  -4   5   5    0.70    1.20
   3  -5  -5    1.60    1.10
   3  -5  -5    0.40    1.10
  -3   5   5    1.30    0.90
  -3   5   5    0.90    1.20
  -3   5   5    1.10    1.10
   2  -5  -5   18.70    1.70
   2  -5  -5   20.70    1.70
  -2   5   5   20.80    1.90
  -2   5   5   24.90    1.70
  -2   5   5   21.70    1.70
  -2   5   5   21.00    1.70
   1  -5  -5   78.49    2.90
   1  -5  -5   76.89    2.90
  -1   5   5   78.09    2.80
  -1   5   5   76.19    3.10
  -1   5   5   72.99    2.90
   0  -5  -5   12.80    1.30
   0  -5  -5    8.90    1.20
   0   5   5   10.80    1.40
   0   5   5   13.70    1.60
   0   5   5   14.80    1.50
  -1  -5  -5    5.30    0.90
  -1  -5  -5    4.70    1.40
   1   5   5    5.40    1.40
   1   5   5    3.30    1.00
   1   5   5    3.80    1.30
  -2  -5  -5  278.27    7.90
   2   5   5  266.27    8.10
   2   5   5  277.57    8.70
   2   5   5  288.77    8.50
  -3  -5  -5   35.30    2.30
   3   5   5   39.10    3.00
   3   5   5   33.70    3.60
  -4  -5  -5  100.89    4.10
   4   5   5  108.49    5.00
   4   5   5  108.79    6.20
  -6   6   5   28.60    4.20
  -6   6   5   34.20    4.10
  -5   6   5   75.89    4.90
  -5   6   5   75.99    3.80
  -4   6   5   -0.40    1.20
  -4   6   5    0.30    1.60
  -3   6   5   15.80    1.70
  -3   6   5   16.30    1.90
  -3   6   5   12.70    1.70
   2  -6  -5  135.69    4.70
  -2   6   5  150.98    5.10
  -2   6   5  139.99    4.70
   1  -6  -5    2.80    1.10
   1  -6  -5    4.90    1.10
  -1   6   5    2.60    1.10
  -1   6   5    2.90    1.30
  -1   6   5    2.40    1.10
   0  -6  -5    6.90    1.40
   0  -6  -5    7.60    1.20
   0   6   5   11.90    1.40
   0   6   5    8.70    1.50
   0   6   5   10.50    1.50
  -1  -6  -5  212.88    6.60
   1   6   5  218.28    7.20
   1   6   5  223.18    6.80
   1   6   5  224.68    7.20
  -2  -6  -5   98.89    3.80
   2   6   5   95.89    4.70
   2   6   5   88.19    4.00
   2   6   5   99.69    4.40
  -3  -6  -5    2.90    1.50
   3   6   5    2.90    2.40
   3   6   5    4.40    1.90
   4   6   5   36.40    4.60
  -5   7   5    8.90    2.70
  -5   7   5   10.70    2.10
  -4   7   5  172.68    6.00
  -3   7   5  386.66   11.70
  -3   7   5  397.16   11.20
   2  -7  -5    1.40    1.40
  -2   7   5    1.10    1.50
  -2   7   5    1.40    1.20
   1  -7  -5  123.79    4.30
  -1   7   5  101.39    4.70
   0  -7  -5   35.90    2.50
   0   7   5   41.20    3.20
  -1  -7  -5    5.30    1.40
   1   7   5    3.20    1.90
   1   7   5    3.50    1.90
  -2  -7  -5    9.30    1.70
   2   7   5    7.30    2.40
   2   7   5    5.40    2.30
  -3  -7  -5    6.30    1.90
   3   7   5    4.60    3.20
  -5   8   5   26.30    2.80
  -4   8   5   44.70    3.50
  -3   8   5   34.50    2.90
  -3   8   5   37.20    3.60
  -2   8   5    5.60    2.10
   1  -8  -5  140.09    5.20
  -1   8   5  138.79    5.80
   0  -8  -5    2.50    1.60
   0   8   5    1.30    1.80
  -1  -8  -5    7.40    1.80
   1   8   5    8.90    2.30
  -2  -8  -5   49.10    3.80
  -4   9   5   25.50    2.90
  -3   9   5  227.68    8.70
  -3   9   5  237.98    7.90
  -2   9   5   59.49    4.70
   1  -9  -5   14.70    2.40
  -1   9   5   10.10    2.80
   0  -9  -5    9.10    2.10
   0   9   5    9.20    2.60
  -1  -9  -5   83.59    4.80
   1   9   5   82.59    5.90
  -2  10   5    9.60    3.00
  -1  10   5   13.00    3.60
   0  10  -6   82.29    6.70
   0  10  -6   72.49    4.50
  -1  10  -6   61.29    5.30
  -1  10  -6   56.79    3.80
  -2  10  -6   49.99    3.30
  -2  10  -6   50.89    5.00
  -3  10  -6   61.09    5.60
  -3  10  -6   69.79    6.00
   3 -10   6   73.09    5.10
   3 -10   6   72.69    6.40
   2   9  -6   22.10    4.00
   2   9  -6   12.20    2.90
   1   9  -6  215.38    7.50
   1   9  -6  217.98    8.30
   0   9  -6   45.00    4.00
   0   9  -6   46.70    3.30
  -1   9  -6   20.50    2.80
  -1   9  -6   26.80    2.60
   1  -9   6   23.60    2.60
   1  -9   6   20.10    3.10
  -2   9  -6   56.39    3.10
  -2   9  -6   60.59    4.50
  -2   9  -6   56.89    4.50
   2  -9   6   59.39    4.70
   2  -9   6   60.49    3.80
  -3   9  -6    0.40    1.20
  -3   9  -6   -0.30    2.40
  -3   9  -6    1.40    2.30
   3  -9   6    1.90    1.90
  -4   9  -6   31.90    4.30
  -4   9  -6   32.50    2.20
   4  -9   6   36.20    3.20
   2   8  -6    5.30    2.60
   2   8  -6    2.50    2.00
   1   8  -6   55.89    3.40
   1   8  -6   49.99    4.00
   0   8  -6   10.80    2.10
   0   8  -6   10.60    1.60
   0  -8   6    9.90    1.90
   0  -8   6    9.60    2.10
  -1   8  -6   24.60    2.00
  -1   8  -6   20.50    2.60
  -1   8  -6   25.30    2.70
   1  -8   6   21.80    2.10
   1  -8   6   18.40    2.40
  -2   8  -6   86.79    4.40
  -2   8  -6   77.89    3.10
  -2   8  -6   75.79    4.20
   2  -8   6   74.59    3.60
   2  -8   6   74.79    4.20
  -3   8  -6    0.80    2.20
  -3   8  -6    0.00    1.90
  -3   8  -6    1.10    1.00
   3  -8   6    1.00    1.40
  -4   8  -6   10.30    1.10
  -4   8  -6    8.70    2.70
   4  -8   6   11.40    2.10
   5  -8   6  135.59    6.30
   2   7  -6    0.30    1.90
   2   7  -6    0.40    1.50
  -2  -7   6    0.20    2.10
   1   7  -6  179.08    6.60
   1   7  -6  180.08    5.90
  -1  -7   6  181.78    6.60
   0   7  -6  472.35   13.80
   0   7  -6  488.75   13.00
   0  -7   6  460.85   13.70
   0  -7   6  478.85   13.20
  -1   7  -6  422.56   12.20
  -1   7  -6  415.36   12.20
  -1   7  -6  408.56   11.30
   1  -7   6  414.46   12.30
  -2   7  -6    3.90    0.90
  -2   7  -6    4.30    1.70
  -2   7  -6    4.10    1.80
   2  -7   6    3.00    1.10
  -3   7  -6   11.00    2.00
  -3   7  -6   10.80    2.30
  -3   7  -6   10.50    1.00
   3  -7   6   12.00    1.50
  -4   7  -6   48.00    1.80
  -4   7  -6   47.00    3.90
   4  -7   6   43.10    3.00
  -5   7  -6    1.70    3.00
   5  -7   6   -0.60    1.80
   4   6  -6   17.50    4.70
   3   6  -6    8.20    1.90
  -3  -6   6    9.00    2.50
   2   6  -6    2.30    1.30
   2   6  -6    0.80    1.50
  -2  -6   6   -0.20    1.50
   1   6  -6   62.79    3.40
   1   6  -6   59.99    2.80
  -1  -6   6   64.89    3.50
  -1  -6   6   68.79    3.00
   0   6  -6   32.30    1.80
   0   6  -6   25.70    2.20
   0  -6   6   28.40    2.00
   0  -6   6   33.20    2.50
  -1   6  -6  124.89    3.80
  -1   6  -6  119.79    4.50
  -1   6  -6  123.49    4.60
   1  -6   6  123.99    4.10
   1  -6   6  130.29    4.70
  -2   6  -6   52.29    2.00
  -2   6  -6   59.19    3.10
  -2   6  -6   56.99    2.90
   2  -6   6   57.69    2.40
  -3   6  -6   15.10    1.10
  -3   6  -6   19.50    2.00
  -3   6  -6   14.70    2.10
   3  -6   6   16.40    1.70
  -4   6  -6    1.60    1.80
   4  -6   6    2.00    1.20
  -5   6  -6   64.59    5.10
   5  -6   6   61.99    3.50
   4   5  -6   -0.80    2.30
  -4  -5   6    0.60    2.40
   3   5  -6    7.80    1.90
   3   5  -6    5.60    1.50
  -3  -5   6    8.70    2.20
   2   5  -6   27.60    2.00
   2   5  -6   24.70    2.40
   2   5  -6   24.00    2.20
  -2  -5   6   25.50    2.10
  -2  -5   6   25.10    2.60
   1   5  -6    5.40    0.90
   1   5  -6    7.20    1.40
   1   5  -6    5.30    1.00
  -1  -5   6    6.90    1.40
  -1  -5   6    6.00    1.00
   0   5  -6   83.29    2.90
   0   5  -6   81.19    3.40
   0  -5   6   90.49    3.60
   0  -5   6   93.89    3.10
  -1   5  -6  457.65   12.40
  -1   5  -6  429.56   12.40
  -1   5  -6  442.56   11.60
   1  -5   6  441.06   12.40
   1  -5   6  444.46   11.80
  -2   5  -6  313.87    8.20
  -2   5  -6  312.77    9.00
  -2   5  -6  305.87    9.30
   2  -5   6  311.67    8.50
  -3   5  -6   32.10    1.10
  -3   5  -6   30.80    2.70
  -3   5  -6   31.00    2.30
   3  -5   6   28.80    1.80
  -4   5  -6    0.00    1.70
   4  -5   6    0.50    1.00
  -5   5  -6   10.10    2.60
   5  -5   6   11.70    1.70
   6  -5   6    4.10    3.20
   5   4  -6    5.00    3.00
  -5  -4   6   13.30    2.50
  -5  -4   6   12.10    3.30
   4   4  -6  136.29    5.90
  -4  -4   6  149.69    5.50
  -4  -4   6  129.89    5.70
   3   4  -6  114.09    4.50
   3   4  -6  122.39    4.30
   3   4  -6  116.79    4.70
  -3  -4   6  110.89    4.30
  -3  -4   6  118.59    4.90
   2   4  -6    5.80    1.00
   2   4  -6    9.10    1.30
   2   4  -6    8.50    1.40
  -2  -4   6   11.50    1.30
  -2  -4   6   11.20    1.40
  -2  -4   6    9.20    1.60
   1   4  -6  191.98    5.50
   1   4  -6  195.38    5.60
   1   4  -6  182.88    5.90
  -1  -4   6  199.98    5.60
  -1  -4   6  190.58    6.00
  -1  -4   6  194.58    5.70
   0   4  -6  495.85   13.50
   0   4  -6  515.15   14.20
   0   4  -6  527.55   14.10
   0   4  -6  518.75   13.40
   0  -4   6  536.05   14.20
   0  -4   6  515.75   13.60
  -1   4  -6    8.40    1.10
  -1   4  -6    8.10    0.70
  -1   4  -6    7.10    1.10
  -1   4  -6    8.30    0.70
   1  -4   6    8.10    0.70
  -2   4  -6    0.60    0.30
  -2   4  -6    0.30    0.30
  -2   4  -6    1.10    0.80
  -2   4  -6   -0.10    0.80
   2  -4   6    0.40    0.50
  -3   4  -6  124.99    4.70
  -3   4  -6  122.69    4.10
   3  -4   6  122.79    3.80
  -4   4  -6  571.84   16.20
   4  -4   6  555.04   15.00
  -5   4  -6    0.60    1.90
   5  -4   6   -0.30    1.20
  -6   4  -6    6.00    3.20
   6  -4   6    5.70    1.90
   5   3  -6   39.90    4.40
  -5  -3   6   42.30    4.50
  -5  -3   6   39.30    3.50
   4   3  -6   43.20    3.20
  -4  -3   6   51.39    3.10
  -4  -3   6   43.70    3.30
   3   3  -6    4.70    1.20
   3   3  -6    4.30    1.20
   3   3  -6    4.80    1.30
  -3  -3   6    4.00    1.40
  -3  -3   6    4.10    1.20
   2   3  -6   85.79    3.20
   2   3  -6   83.19    2.90
   2   3  -6   79.69    3.10
  -2  -3   6   84.59    2.90
  -2  -3   6   79.39    3.00
   1   3  -6   48.20    1.90
   1   3  -6   49.70    2.00
   1   3  -6   49.40    2.20
  -1  -3   6   53.69    2.40
  -1  -3   6   54.99    1.90
  -1  -3   6   50.79    2.00
   0   3  -6  339.27    9.60
   0   3  -6  340.97    9.00
   0   3  -6  349.17    9.00
   0   3  -6  354.56    9.00
   0   3  -6  334.57    9.50
   0  -3   6  347.57    9.10
   0  -3   6  342.07    9.60
  -1   3  -6  345.97    8.50
  -1   3  -6  326.07    9.00
  -1   3  -6  318.97    9.10
   1  -3   6  313.27    8.50
   1  -3   6  330.87    8.50
   1  -3   6  318.67    8.50
  -2   3  -6    5.80    1.00
  -2   3  -6    6.00    0.90
   2  -3   6    5.00    0.60
   2  -3   6    9.50    1.00
   2  -3   6    5.50    0.60
  -3   3  -6   25.10    2.10
   3  -3   6   25.40    1.80
   3  -3   6   27.10    1.40
  -4   3  -6    6.50    1.60
   4  -3   6    5.40    1.00
   4  -3   6    5.30    1.50
  -5   3  -6   49.70    3.70
   5  -3   6   50.29    2.80
  -6   3  -6    5.00    3.10
   6  -3   6   11.20    2.10
   5   2  -6   47.10    4.30
  -5  -2   6   51.29    4.30
  -5  -2   6   51.69    3.40
   4   2  -6    5.70    1.70
  -4  -2   6    5.60    1.70
  -4  -2   6    4.60    1.40
   3   2  -6    4.30    1.30
   3   2  -6    4.00    1.00
   3   2  -6    3.40    1.00
  -3  -2   6    2.20    1.10
  -3  -2   6    4.00    1.10
  -3  -2   6    3.70    1.10
   2   2  -6 1618.34   42.00
   2   2  -6 1649.93   42.10
   2   2  -6 1643.14   42.30
   2   2  -6 1665.83   41.90
  -2  -2   6 1642.34   42.00
  -2  -2   6 1584.64   42.40
  -2  -2   6 1695.53   42.00
   1   2  -6  300.77    8.50
   1   2  -6  309.97    8.20
   1   2  -6  308.67    8.40
  -1  -2   6  313.67    8.30
  -1  -2   6  317.37    8.30
  -1  -2   6  312.37    8.70
   0   2  -6  300.37    8.10
   0   2  -6  294.37    7.60
   0   2  -6  298.17    7.80
   0   2  -6  296.37    8.20
   0   2  -6  297.97    7.60
   0  -2   6  286.77    7.70
   0  -2   6  295.87    7.70
   0  -2   6  287.37    8.10
  -1   2  -6 1143.39   30.00
  -1   2  -6 1200.58   29.90
  -1   2  -6 1183.18   30.30
   1  -2   6 1162.88   29.60
   1  -2   6 1163.18   29.60
  -2   2  -6    6.80    0.80
  -2   2  -6    4.30    0.90
   2  -2   6    4.70    0.80
   2  -2   6    4.40    0.50
   2  -2   6    4.50    0.40
  -3   2  -6  208.18    6.40
   3  -2   6  198.68    5.60
   3  -2   6  202.48    6.20
  -4   2  -6   93.59    4.20
   4  -2   6   88.79    4.00
   4  -2   6   91.29    3.20
  -5   2  -6   36.20    3.70
   5  -2   6   35.20    2.50
   5  -2   6   34.40    3.60
  -6   2  -6  588.04   18.30
   6  -2   6  653.13   20.60
   6  -2   6  597.24   16.90
   6   1  -6   47.10    5.40
  -6  -1   6   44.40    4.20
  -6  -1   6   39.90    4.50
   5   1  -6   10.80    2.60
  -5  -1   6    9.60    2.60
  -5  -1   6   12.30    2.00
   4   1  -6  114.79    4.80
  -4  -1   6  124.29    5.00
  -4  -1   6  124.89    4.40
   3   1  -6    6.20    1.10
   3   1  -6    4.50    0.90
   3   1  -6    6.70    1.30
   3   1  -6    9.40    1.20
  -3  -1   6    5.80    1.00
  -3  -1   6    7.00    1.10
  -3  -1   6    6.60    1.20
   2   1  -6  330.87    8.50
   2   1  -6  311.37    8.60
   2   1  -6  301.47    8.80
   2   1  -6  312.97    8.50
  -2  -1   6  315.77    9.00
  -2  -1   6  315.77    8.50
  -2  -1   6  323.07    8.60
   1   1  -6   74.59    2.50
   1   1  -6   73.59    2.20
   1   1  -6   77.59    2.50
  -1  -1   6   77.19    2.30
  -1  -1   6   72.99    2.60
   0   1  -6   79.09    2.50
   0   1  -6   79.59    2.60
   0   1  -6   83.19    2.60
   0  -1   6   77.39    2.10
   0  -1   6   77.59    2.60
   0  -1   6   78.59    2.10
  -1   1  -6  559.54   14.70
  -1   1  -6  568.84   14.90
  -1   1  -6  568.24   14.80
  -2   1  -6   40.20    1.50
  -2   1  -6   40.20    1.90
   2  -1   6   36.00    1.20
   2  -1   6   34.70    1.20
   2  -1   6   34.10    1.80
  -3   1  -6    1.60    1.10
   3  -1   6    2.00    1.10
   3  -1   6    1.60    0.50
  -4   1  -6   69.89    3.60
   4  -1   6   74.59    2.80
   4  -1   6   72.29    3.80
  -5   1  -6   21.10    2.80
   5  -1   6   20.40    2.80
   5  -1   6   17.50    1.70
  -6   1  -6    6.70    3.20
   6  -1   6    7.70    3.60
   6  -1   6    6.30    2.00
   6   0  -6    2.00    3.10
  -6   0   6    2.50    2.10
  -6   0   6    3.30    3.10
   5   0  -6  709.73   20.10
  -5   0   6  717.13   19.20
  -5   0   6  695.23   20.10
   4   0  -6  152.78    5.30
   4   0  -6  164.78    5.80
  -4   0   6  161.08    5.20
  -4   0   6  159.88    5.80
   3   0  -6   10.00    1.10
   3   0  -6   10.40    1.10
   3   0  -6   12.30    1.50
  -3   0   6   10.20    1.10
  -3   0   6   12.10    1.20
  -3   0   6    8.50    1.30
  -3   0   6   13.30    1.20
   2   0  -6  352.36    9.80
   2   0  -6  366.36    9.80
   2   0  -6  380.86   10.20
   2   0  -6  372.26    9.90
  -2   0   6  372.86    9.80
  -2   0   6  360.96   10.20
  -2   0   6  372.96    9.90
   1   0  -6   42.60    1.70
   1   0  -6   44.80    1.70
   1   0  -6   42.20    1.40
  -1   0   6   44.60    1.40
  -1   0   6   40.40    1.70
   0   0  -6 1891.81   49.10
   0   0  -6 1913.61   49.10
   0   0   6 1953.70   48.70
   0   0   6 1992.70   49.00
   0   0   6 1900.81   48.70
  -1   0  -6  882.01   22.70
  -1   0  -6  877.01   22.50
  -1   0  -6  878.31   22.50
   1   0   6  862.41   22.50
  -2   0  -6   65.69    2.40
   2   0   6   60.69    2.50
   2   0   6   64.99    2.20
   2   0   6   63.89    2.00
   2   0   6   65.79    2.00
  -3   0  -6   53.59    2.50
   3   0   6   46.70    2.60
   3   0   6   51.19    1.90
  -4   0  -6    8.90    1.80
   4   0   6    7.30    1.90
   4   0   6    6.90    1.10
  -5   0  -6   36.50    3.60
   5   0   6   36.80    2.70
   5   0   6   35.90    3.60
   6   0   6   87.39    6.20
   6   0   6   92.39    4.70
   6  -1  -6    2.30    2.50
  -6   1   6    4.90    3.00
  -6   1   6    1.30    1.90
   5  -1  -6   23.30    2.80
  -5   1   6   18.30    2.50
  -5   1   6   22.10    2.10
   4  -1  -6    0.10    1.00
   4  -1  -6   -0.50    1.30
  -4   1   6    0.10    1.10
  -4   1   6   -0.50    1.40
   3  -1  -6   99.89    3.40
   3  -1  -6  106.19    3.40
   3  -1  -6  100.59    3.80
  -3   1   6  104.79    3.50
  -3   1   6  105.49    3.40
  -3   1   6  107.99    3.40
  -3   1   6   95.49    3.80
   2  -1  -6  348.27    9.30
   2  -1  -6  346.77    9.40
   2  -1  -6  356.86    9.30
   2  -1  -6  337.37    9.60
  -2   1   6  351.06    9.30
  -2   1   6  363.26    9.50
  -2   1   6  332.67    9.60
  -2   1   6  354.06    9.40
   1  -1  -6    1.40    0.60
   1  -1  -6    1.00    0.30
   1  -1  -6    1.50    0.60
  -1   1   6    1.60    0.50
  -1   1   6    1.50    0.40
  -1   1   6    1.50    0.50
   0  -1  -6 1014.50   25.80
   0  -1  -6  965.80   25.30
   0  -1  -6 1018.30   25.30
   0   1   6  990.30   25.40
   0   1   6 1012.80   25.40
   0   1   6  999.50   25.40
   0   1   6  998.10   25.70
  -1  -1  -6   13.30    1.10
  -1  -1  -6   13.60    0.80
   1   1   6   12.00    1.10
   1   1   6   12.70    0.70
   1   1   6   10.90    0.90
   1   1   6   12.00    0.60
  -2  -1  -6   17.10    1.20
   2   1   6   17.40    1.60
   2   1   6   15.80    1.00
   2   1   6   16.90    1.20
   2   1   6   16.40    1.00
  -3  -1  -6   39.30    2.20
  -3  -1  -6   37.90    1.20
  -3  -1  -6   38.40    1.20
   3   1   6   32.90    2.40
   3   1   6   37.70    1.80
  -4  -1  -6   72.49    2.20
  -4  -1  -6   76.69    3.60
   4   1   6   76.89    4.20
   4   1   6   73.69    3.00
   5   1   6   89.59    3.90
   5   1   6   86.09    5.00
   6  -2  -6    1.00    2.40
  -6   2   6    1.10    1.90
  -6   2   6    0.20    2.50
   5  -2  -6   32.80    3.10
  -5   2   6   38.10    2.80
  -5   2   6   37.10    3.20
   4  -2  -6    4.50    1.50
  -4   2   6    3.10    1.10
  -4   2   6    2.90    1.50
   3  -2  -6   15.00    1.40
   3  -2  -6   13.00    1.30
   3  -2  -6    9.40    1.20
  -3   2   6   13.50    1.50
  -3   2   6   12.80    1.30
  -3   2   6    8.60    1.00
  -3   2   6   13.60    1.30
   2  -2  -6   47.30    1.80
   2  -2  -6   52.59    1.90
   2  -2  -6   45.50    2.00
  -2   2   6   47.00    1.90
  -2   2   6   48.00    2.00
  -2   2   6   48.60    2.10
  -2   2   6   47.40    1.80
   1  -2  -6   54.89    1.80
   1  -2  -6   55.39    2.10
  -1   2   6   57.39    2.00
  -1   2   6   52.19    2.10
  -1   2   6   59.29    2.00
  -1   2   6   57.59    1.90
   0  -2  -6  722.13   18.90
   0  -2  -6  735.23   18.50
   0  -2  -6  720.53   18.50
   0   2   6  700.23   18.50
   0   2   6  732.93   18.90
  -1  -2  -6  935.11   24.10
  -1  -2  -6  990.30   24.10
  -1  -2  -6  935.21   24.10
  -1  -2  -6  931.91   24.80
   1   2   6  954.20   24.80
   1   2   6  956.10   24.60
   1   2   6  933.51   24.20
  -2  -2  -6   28.40    1.50
  -2  -2  -6   28.20    1.10
  -2  -2  -6   29.80    1.20
   2   2   6   27.10    1.40
   2   2   6   30.90    2.00
   2   2   6   29.30    1.60
  -3  -2  -6   95.19    2.90
   3   2   6   98.39    3.40
   3   2   6  100.59    4.30
  -4  -2  -6   41.80    1.70
   4   2   6   39.40    2.50
   4   2   6   40.70    3.30
  -5  -2  -6   24.50    1.40
   5   2   6   24.50    2.40
   5   2   6   20.60    3.20
   6  -3  -6    2.40    2.70
  -6   3   6    1.20    1.80
  -6   3   6    1.00    2.50
   5  -3  -6  117.89    5.30
  -5   3   6  122.99    5.50
  -5   3   6  119.49    4.70
   4  -3  -6    8.80    1.70
  -4   3   6    7.10    1.30
  -4   3   6    8.20    1.60
   3  -3  -6    0.30    0.80
   3  -3  -6    1.00    1.00
   3  -3  -6    0.60    0.80
  -3   3   6    0.60    0.80
  -3   3   6    0.70    0.80
  -3   3   6    1.00    0.80
  -3   3   6    0.80    1.00
   2  -3  -6   18.20    1.50
   2  -3  -6   21.70    1.30
   2  -3  -6   20.90    1.40
  -2   3   6   18.80    1.40
  -2   3   6   20.20    1.40
  -2   3   6   17.00    1.30
   1  -3  -6 1304.57   34.30
   1  -3  -6 1327.67   34.00
   1  -3  -6 1283.77   34.00
  -1   3   6 1336.67   34.00
  -1   3   6 1351.16   34.40
  -1   3   6 1347.07   33.90
  -1   3   6 1364.66   34.10
   0  -3  -6  297.67    8.10
   0  -3  -6  299.47    8.50
   0   3   6  309.47    8.20
   0   3   6  303.97    8.50
   0   3   6  303.57    8.10
  -1  -3  -6   41.40    1.50
  -1  -3  -6   38.90    2.20
  -1  -3  -6   41.30    1.80
   1   3   6   42.50    1.70
   1   3   6   37.20    1.90
   1   3   6   41.00    2.20
  -2  -3  -6   26.30    1.30
   2   3   6   21.30    1.60
   2   3   6   22.40    1.50
   2   3   6   23.60    2.20
  -3  -3  -6   92.49    3.00
   3   3   6   95.99    4.40
   3   3   6   90.69    3.50
  -4  -3  -6    3.50    0.90
   4   3   6    2.70    2.30
   4   3   6    5.00    1.50
  -5  -3  -6    0.30    1.00
   5   3   6    1.40    1.90
   5   3   6    1.10    2.90
   6  -4  -6   49.40    4.80
  -6   4   6   45.00    3.60
  -6   4   6   39.90    4.30
   5  -4  -6   72.79    4.20
  -5   4   6   76.99    4.30
  -5   4   6   78.09    3.60
   4  -4  -6    4.70    1.50
  -4   4   6    6.40    1.70
  -4   4   6    5.50    1.30
   3  -4  -6   18.60    1.70
   3  -4  -6   19.60    1.80
  -3   4   6   20.30    1.90
  -3   4   6   21.00    1.80
  -3   4   6   18.20    1.70
   2  -4  -6   17.30    1.60
   2  -4  -6   16.10    1.40
   2  -4  -6   16.60    1.40
  -2   4   6   17.00    1.30
  -2   4   6   15.20    1.50
  -2   4   6   17.40    1.50
  -2   4   6   16.70    1.40
   1  -4  -6  246.08    7.30
   1  -4  -6  262.27    7.30
   1  -4  -6  254.67    7.10
  -1   4   6  256.07    6.90
  -1   4   6  260.57    7.50
  -1   4   6  244.68    7.10
  -1   4   6  265.07    7.20
   0  -4  -6   53.19    2.10
   0  -4  -6   57.69    2.50
   0   4   6   61.69    2.20
   0   4   6   55.09    2.50
  -1  -4  -6  304.87    9.20
  -1  -4  -6  311.87    8.50
   1   4   6  314.57    9.00
   1   4   6  329.17    8.70
   1   4   6  313.07    9.20
  -2  -4  -6  370.86   10.00
   2   4   6  374.26   10.90
   2   4   6  372.56   10.40
   2   4   6  358.96   10.20
  -3  -4  -6    9.60    1.10
   3   4   6    7.60    2.10
   3   4   6    8.60    1.40
  -4  -4  -6  304.67    8.60
   4   4   6  305.97    9.40
   4   4   6  312.37   10.70
  -6   5   6   12.40    3.50
  -6   5   6   13.90    2.40
  -5   5   6    8.20    1.80
  -5   5   6    6.20    2.40
   4  -5  -6   43.00    2.90
  -4   5   6   39.90    2.60
  -4   5   6   41.40    3.20
   3  -5  -6  134.99    4.50
   3  -5  -6  128.09    4.60
  -3   5   6  124.59    4.70
  -3   5   6  142.89    4.80
   2  -5  -6   10.30    1.20
   2  -5  -6    7.50    1.20
  -2   5   6    8.00    1.10
  -2   5   6    7.40    1.20
  -2   5   6   10.20    1.30
  -2   5   6   10.40    1.40
   1  -5  -6   29.30    1.90
   1  -5  -6   27.70    1.80
  -1   5   6   25.30    1.80
  -1   5   6   33.40    2.20
  -1   5   6   30.90    1.80
   0  -5  -6  310.87    8.60
   0  -5  -6  303.17    9.00
   0   5   6  317.17    9.20
   0   5   6  309.27    8.70
  -1  -5  -6  619.54   16.60
  -1  -5  -6  635.24   17.30
   1   5   6  617.44   16.80
   1   5   6  641.24   17.30
   1   5   6  630.84   17.20
  -2  -5  -6  206.18    6.20
   2   5   6  203.68    7.20
   2   5   6  218.88    6.90
   2   5   6  208.78    6.40
  -3  -5  -6   -0.20    1.10
   3   5   6    0.60    1.50
   3   5   6   -0.50    1.80
  -4  -5  -6    3.60    1.50
   4   5   6    2.80    2.20
   4   5   6    1.40    2.60
  -5   6   6   62.19    4.60
  -5   6   6   67.89    3.70
  -4   6   6  167.68    5.90
  -4   6   6  184.68    6.60
   3  -6  -6   15.40    1.70
  -3   6   6   14.90    1.90
  -3   6   6   16.10    2.80
  -3   6   6   14.70    1.70
   2  -6  -6  136.99    4.60
   2  -6  -6  122.49    4.60
  -2   6   6  135.39    4.50
  -2   6   6  128.89    4.80
   1  -6  -6  124.79    4.20
   1  -6  -6  119.19    4.40
  -1   6   6  129.79    4.30
  -1   6   6  126.79    4.70
   0  -6  -6   23.40    2.40
   0  -6  -6   27.40    1.90
   0   6   6   25.70    2.50
   0   6   6   24.50    2.40
   0   6   6   23.30    2.00
  -1  -6  -6  118.59    4.30
   1   6   6  133.29    5.00
   1   6   6  124.89    4.80
   1   6   6  127.89    4.50
  -2  -6  -6    0.30    1.10
   2   6   6    0.50    1.90
   2   6   6    0.80    1.40
   2   6   6   -0.20    1.70
  -3  -6  -6   29.50    2.60
   3   6   6   25.50    3.40
   3   6   6   26.20    2.60
  -5   7   6   67.49    5.40
  -5   7   6   61.49    4.10
  -4   7   6   80.09    4.00
  -3   7   6   19.80    2.10
  -3   7   6   15.70    2.20
   2  -7  -6    1.40    1.40
  -2   7   6    1.50    1.60
   1  -7  -6  158.58    5.20
  -1   7   6  153.78    5.90
   0  -7  -6    0.40    1.20
   0   7   6    0.40    1.60
  -1  -7  -6  209.48    6.50
   1   7   6  206.68    7.20
   1   7   6  202.48    7.20
   1   7   6  185.18    7.10
  -2  -7  -6  172.28    5.90
   2   7   6  183.98    7.20
  -3  -7  -6    7.40    1.90
   3   7   6    7.60    3.40
  -5   8   6   15.40    2.70
  -4   8   6   58.89    3.80
  -3   8   6   31.40    3.60
   2  -8  -6   19.60    2.30
  -2   8   6   21.00    2.70
   1  -8  -6   33.60    2.90
  -1   8   6   36.20    3.20
   0  -8  -6   83.89    4.00
   0   8   6   87.99    4.80
  -1  -8  -6   64.39    3.80
   1   8   6   69.39    4.70
  -2  -8  -6    3.00    2.00
  -4   9   6  143.49    6.20
  -3   9   6   23.50    3.40
  -2   9   6    9.80    2.50
   1  -9  -6   32.10    3.00
  -1   9   6   32.40    3.60
   0  -9  -6   28.90    2.70
   0   9   6   31.30    3.50
  -1  -9  -6   17.30    2.60
   1   9   6   17.30    3.70
   1 -10  -6    2.80    2.60
  -1  10  -7   22.90    2.40
  -1  10  -7   27.00    3.50
  -2  10  -7   55.19    5.20
  -2  10  -7   48.90    3.20
   2 -10   7   41.10    6.50
   2 -10   7   39.30    4.40
   1   9  -7   22.10    3.60
   1   9  -7   23.70    2.60
   0   9  -7    0.00    2.40
   0   9  -7    1.20    1.60
  -1   9  -7    5.40    1.50
  -1   9  -7    7.80    2.40
   1  -9   7    5.10    2.60
   1  -9   7    7.50    2.10
  -2   9  -7    0.70    1.30
  -2   9  -7   -0.30    2.30
  -2   9  -7    1.60    2.30
   2  -9   7   -0.50    2.50
  -3   9  -7   40.40    4.80
  -3   9  -7   34.70    2.30
  -3   9  -7   39.10    4.30
   3  -9   7   37.70    3.60
  -4   9  -7   81.39    6.30
   4  -9   7   83.09    4.80
   2   8  -7   27.50    3.40
   2   8  -7   30.90    2.80
   1   8  -7  121.29    4.80
   1   8  -7  127.39    5.60
  -1  -8   7  127.89    5.80
   0   8  -7  531.85   14.20
   0   8  -7  493.65   15.10
   0  -8   7  507.55   14.50
   0  -8   7  528.25   15.00
  -1   8  -7    2.10    1.70
  -1   8  -7    5.00    1.20
  -1   8  -7    2.80    2.10
   1  -8   7    2.90    1.50
   1  -8   7    4.10    2.20
  -2   8  -7   17.90    2.50
  -2   8  -7   19.10    1.80
  -2   8  -7   19.60    2.70
   2  -8   7   18.50    1.90
   2  -8   7   21.20    2.80
  -3   8  -7   82.29    4.50
  -3   8  -7   83.79    2.90
  -3   8  -7   88.19    5.10
   3  -8   7   85.39    3.90
  -4   8  -7    1.30    2.80
   4  -8   7    3.90    1.80
   3   7  -7  104.59    5.10
   2   7  -7   24.30    2.30
   2   7  -7   25.90    2.90
  -2  -7   7   21.90    2.90
   1   7  -7   64.19    3.10
   1   7  -7   66.29    3.70
  -1  -7   7   64.89    3.40
  -1  -7   7   58.99    3.70
   0   7  -7    1.50    1.40
   0   7  -7    1.40    1.00
   0  -7   7    0.50    1.50
   0  -7   7    2.10    1.30
  -1   7  -7   21.80    2.40
  -1   7  -7   22.20    2.40
  -1   7  -7   21.90    1.70
   1  -7   7   21.80    2.50
   1  -7   7   21.60    2.10
  -2   7  -7   15.00    1.40
  -2   7  -7   18.00    2.50
  -2   7  -7   15.50    2.10
   2  -7   7   13.40    1.50
  -3   7  -7    7.50    2.20
  -3   7  -7    5.50    1.90
  -3   7  -7    7.20    0.80
   3  -7   7    7.40    1.40
  -4   7  -7   45.30    3.90
   4  -7   7   50.49    3.10
  -5   7  -7    7.70    3.20
   5  -7   7    8.40    2.10
   3   6  -7  141.19    5.50
  -3  -6   7  146.59    6.30
   2   6  -7   19.40    1.80
   2   6  -7   21.60    2.40
  -2  -6   7   25.10    3.10
   1   6  -7   98.19    3.60
   1   6  -7  100.99    4.30
  -1  -6   7   91.89    4.20
  -1  -6   7   92.09    3.70
   0   6  -7  207.58    6.00
   0   6  -7  195.18    6.60
   0  -6   7  208.58    6.20
   0  -6   7  202.58    6.70
  -1   6  -7  301.07    9.10
  -1   6  -7  286.37    8.00
  -1   6  -7  289.47    8.90
   1  -6   7  280.47    8.20
   1  -6   7  313.07    9.10
  -2   6  -7  237.28    6.50
  -2   6  -7  241.78    7.80
  -2   6  -7  239.48    7.50
   2  -6   7  239.68    6.90
  -3   6  -7   37.00    2.70
  -3   6  -7   36.90    3.20
   3  -6   7   36.30    2.20
  -4   6  -7   70.99    4.50
   4  -6   7   75.49    3.30
  -5   6  -7    6.00    2.90
   5  -6   7    5.50    1.70
   4   5  -7   13.70    2.70
  -4  -5   7   17.80    3.10
   3   5  -7   43.30    2.90
   3   5  -7   39.20    3.20
  -3  -5   7   42.40    3.60
   2   5  -7  113.39    4.20
   2   5  -7  122.09    4.50
   2   5  -7  111.99    4.10
  -2  -5   7  114.69    4.10
  -2  -5   7  105.39    4.60
   1   5  -7  391.96   11.30
   1   5  -7  397.36   10.70
  -1  -5   7  392.66   10.80
  -1  -5   7  385.96   11.40
   0   5  -7  264.87    7.20
   0   5  -7  254.07    7.80
   0  -5   7  259.07    7.30
   0  -5   7  256.47    7.90
  -1   5  -7   39.50    2.30
  -1   5  -7   42.10    1.60
  -1   5  -7   43.20    2.50
   1  -5   7   42.50    2.40
   1  -5   7   40.70    1.80
  -2   5  -7   67.89    3.20
  -2   5  -7   63.59    3.00
  -2   5  -7   68.69    2.00
  -2   5  -7   65.79    2.00
   2  -5   7   70.69    2.40
  -3   5  -7   79.49    3.40
  -3   5  -7   75.59    3.80
   3  -5   7   78.29    2.80
  -4   5  -7   18.60    2.40
   4  -5   7   16.90    1.50
  -5   5  -7   20.40    3.20
   5  -5   7   18.60    1.90
   5   4  -7   35.50    4.00
  -5  -4   7   28.10    3.80
   4   4  -7    8.10    2.00
  -4  -4   7    9.80    2.50
   3   4  -7    0.00    1.20
   3   4  -7    0.50    1.30
   3   4  -7    1.40    1.30
  -3  -4   7    0.70    1.50
   2   4  -7   30.20    1.90
   2   4  -7   34.40    2.30
   2   4  -7   29.80    2.10
  -2  -4   7   30.70    2.00
  -2  -4   7   33.60    2.30
   1   4  -7   16.20    1.60
   1   4  -7   17.00    1.30
   1   4  -7   17.00    1.40
  -1  -4   7   16.30    1.70
  -1  -4   7   16.30    1.30
   0   4  -7   79.99    2.40
   0   4  -7   74.79    3.00
   0   4  -7   73.19    3.10
   0   4  -7   76.19    2.40
   0  -4   7   73.79    2.50
   0  -4   7   72.19    3.10
  -1   4  -7  151.98    4.00
  -1   4  -7  145.79    5.00
  -1   4  -7  151.38    4.80
  -1   4  -7  148.09    4.00
   1  -4   7  142.79    4.20
  -2   4  -7   57.79    2.80
  -2   4  -7   65.39    2.60
   2  -4   7   62.59    2.10
  -3   4  -7   56.19    3.10
   3  -4   7   62.09    2.30
  -4   4  -7   34.10    3.20
   4  -4   7   39.00    2.10
  -5   4  -7    1.40    2.10
   5  -4   7    1.50    1.30
  -6   4  -7   29.00    4.30
   6  -4   7   35.30    4.20
   5   3  -7   16.90    3.00
  -5  -3   7   22.90    3.20
  -5  -3   7   22.20    2.60
   4   3  -7    0.70    1.80
  -4  -3   7   -0.20    1.50
  -4  -3   7   -0.20    1.90
   3   3  -7   67.69    3.40
   3   3  -7   75.29    3.00
   3   3  -7   64.29    3.10
  -3  -3   7   71.69    3.60
  -3  -3   7   65.69    3.10
   2   3  -7    8.50    1.00
   2   3  -7   10.90    1.30
   2   3  -7    9.80    1.30
  -2  -3   7   10.10    1.20
  -2  -3   7   10.60    1.10
  -2  -3   7    7.40    1.40
   1   3  -7   54.19    2.10
   1   3  -7   49.70    2.20
   1   3  -7   52.69    1.90
  -1  -3   7   55.49    2.40
  -1  -3   7   53.39    2.10
  -1  -3   7   54.29    2.00
   0   3  -7 1886.01   47.90
   0   3  -7 1852.21   47.80
   0   3  -7 1878.61   47.30
   0   3  -7 1915.61   47.20
   0   3  -7 1813.82   47.20
   0  -3   7 1789.02   47.30
   0  -3   7 1911.71   47.90
  -1   3  -7 2228.98   59.19
  -1   3  -7 2406.56   58.59
  -1   3  -7 2315.17   59.09
   1  -3   7 2333.17   58.49
   1  -3   7 2288.87   58.49
  -2   3  -7   38.10    1.80
  -2   3  -7   37.60    2.10
   2  -3   7   36.80    1.40
   2  -3   7   34.90    1.30
   2  -3   7   37.60    1.70
  -3   3  -7   57.79    3.00
   3  -3   7   50.79    1.90
   3  -3   7   52.59    2.50
  -4   3  -7   -0.50    1.40
   4  -3   7    0.40    0.80
  -5   3  -7  145.89    6.20
   5  -3   7  139.79    4.80
  -6   3  -7   36.10    4.30
   6  -3   7   43.70    3.50
   5   2  -7   64.79    4.70
  -5  -2   7   59.59    4.40
  -5  -2   7   65.09    3.80
   4   2  -7  104.59    4.60
   4   2  -7  103.69    4.30
  -4  -2   7  107.59    4.90
  -4  -2   7  106.39    4.20
   3   2  -7    5.40    1.10
   3   2  -7    5.60    1.10
   3   2  -7    5.70    1.30
  -3  -2   7    3.90    1.10
  -3  -2   7    7.30    1.60
  -3  -2   7    5.10    1.10
   2   2  -7  228.08    6.60
   2   2  -7  210.98    6.20
   2   2  -7  213.38    6.40
   2   2  -7  220.38    7.10
  -2  -2   7  228.88    6.30
  -2  -2   7  220.18    6.30
  -2  -2   7  223.28    6.80
   1   2  -7    1.90    0.40
   1   2  -7    2.60    0.70
   1   2  -7    2.10    0.60
  -1  -2   7    2.30    0.70
  -1  -2   7    2.70    0.50
  -1  -2   7    2.20    0.80
   0   2  -7   89.19    2.70
   0   2  -7   90.39    2.30
   0   2  -7   88.89    3.00
   0   2  -7   91.59    3.00
   0   2  -7   85.09    2.30
   0  -2   7   86.79    2.50
   0  -2   7   81.39    3.00
   0  -2   7   84.69    2.50
  -1   2  -7  138.79    4.20
  -1   2  -7  140.49    4.00
  -1   2  -7  136.89    4.30
   1  -2   7  136.99    3.60
   1  -2   7  129.99    3.50
  -2   2  -7    4.40    0.80
  -2   2  -7    4.00    1.00
   2  -2   7    3.70    0.40
   2  -2   7    2.80    0.70
   2  -2   7    3.50    0.40
  -3   2  -7  182.88    5.80
   3  -2   7  168.08    4.80
   3  -2   7  171.78    5.50
  -4   2  -7   -0.40    1.30
   4  -2   7   -0.30    1.40
   4  -2   7    0.10    0.80
  -5   2  -7   21.40    2.80
   5  -2   7   21.10    2.80
   5  -2   7   19.60    1.80
  -6   2  -7   74.89    5.70
   6  -2   7   71.09    4.00
   6   1  -7  173.18    9.10
  -6  -1   7  186.18    8.30
  -6  -1   7  186.08    7.10
   5   1  -7  556.54   16.10
  -5  -1   7  543.55   15.30
  -5  -1   7  532.95   16.10
   4   1  -7   80.29    3.90
   4   1  -7   83.79    3.60
  -4  -1   7   83.39    4.00
  -4  -1   7   86.09    3.50
   3   1  -7   43.50    2.40
   3   1  -7   40.10    2.10
   3   1  -7   42.30    2.10
  -3  -1   7   41.60    2.40
  -3  -1   7   43.40    2.20
  -3  -1   7   38.30    2.10
   2   1  -7    8.30    0.90
   2   1  -7    7.40    1.00
   2   1  -7    7.30    0.80
   2   1  -7    7.60    1.00
  -2  -1   7    6.40    0.80
  -2  -1   7    5.50    0.80
  -2  -1   7    7.80    1.10
   1   1  -7  103.69    3.30
   1   1  -7   98.49    3.30
   1   1  -7  106.49    3.00
  -1  -1   7  109.69    3.50
  -1  -1   7  104.79    3.00
   0   1  -7  297.37    8.00
   0   1  -7  292.87    8.10
   0   1  -7  301.37    8.10
   0  -1   7  292.87    7.60
   0  -1   7  283.57    8.10
   0  -1   7  300.37    7.60
  -1   1  -7   13.40    1.10
  -1   1  -7   14.30    1.00
  -1   1  -7   13.80    1.00
  -2   1  -7  410.66   10.70
  -2   1  -7  407.16   11.10
   2  -1   7  400.26   10.30
   2  -1   7  399.76   10.30
   2  -1   7  399.26   11.00
  -3   1  -7  408.36   11.20
   3  -1   7  387.96   10.40
   3  -1   7  393.76   11.20
  -4   1  -7    6.40    1.60
   4  -1   7    9.60    2.00
   4  -1   7    6.00    1.00
  -5   1  -7   96.59    5.00
   5  -1   7  103.39    5.20
   5  -1   7   90.39    3.80
  -6   1  -7   10.10    3.50
   6  -1   7    9.80    3.80
   6  -1   7    9.10    2.40
   6   0  -7   29.20    4.00
  -6   0   7   19.60    3.70
  -6   0   7   23.70    2.80
   5   0  -7  146.59    6.20
  -5   0   7  148.49    6.30
  -5   0   7  143.99    5.30
   4   0  -7   36.00    2.90
   4   0  -7   36.10    2.40
  -4   0   7   42.20    3.00
  -4   0   7   38.00    2.40
   3   0  -7  320.17    8.70
   3   0  -7  299.97    8.50
   3   0  -7  304.87    9.00
   3   0  -7  307.37    8.50
  -3   0   7  307.97    8.50
  -3   0   7  305.57    8.50
  -3   0   7  297.37    8.60
  -3   0   7  303.27    9.10
   2   0  -7  273.97    7.50
   2   0  -7  265.77    7.60
   2   0  -7  272.87    7.80
   2   0  -7  282.77    7.40
  -2   0   7  263.77    7.90
  -2   0   7  276.07    7.50
  -2   0   7  279.77    7.50
   1   0  -7  931.41   23.80
   1   0  -7  923.21   24.20
   1   0  -7  934.81   24.20
  -1   0   7  946.01   24.20
  -1   0   7  938.71   23.90
   0   0  -7 1743.53   44.00
   0   0  -7 1741.33   44.00
   0   0   7 1744.93   43.60
   0   0   7 1708.33   43.90
   0   0   7 1692.13   43.50
  -1   0  -7  207.18    5.80
  -1   0  -7  211.68    5.80
  -1   0  -7  201.68    5.90
   1   0   7  201.38    5.80
  -2   0  -7   97.99    3.20
  -2   0  -7   93.49    3.40
   2   0   7   91.69    2.60
   2   0   7   87.39    3.30
   2   0   7   91.89    2.90
   2   0   7   88.69    2.60
  -3   0  -7   67.89    2.90
   3   0   7   62.49    3.00
   3   0   7   62.29    2.20
  -4   0  -7    1.90    1.50
   4   0   7    3.20    1.00
   4   0   7    2.30    1.80
  -5   0  -7   65.89    4.30
   5   0   7   66.49    3.30
   5   0   7   64.09    4.70
   6  -1  -7   13.10    3.00
  -6   1   7   11.30    3.20
  -6   1   7   14.70    2.40
   5  -1  -7   37.50    3.20
  -5   1   7   33.30    3.50
  -5   1   7   38.30    2.90
   4  -1  -7  285.97    8.90
   4  -1  -7  293.27    8.30
  -4   1   7  279.87    8.90
  -4   1   7  275.17    8.30
   3  -1  -7   41.60    2.00
   3  -1  -7   36.50    2.30
   3  -1  -7   40.90    2.00
  -3   1   7   41.10    2.30
  -3   1   7   41.80    2.00
  -3   1   7   44.50    2.00
  -3   1   7   40.30    2.00
   2  -1  -7   44.10    2.00
   2  -1  -7   45.30    1.80
   2  -1  -7   49.30    1.90
   2  -1  -7   44.70    2.10
  -2   1   7   48.30    1.80
  -2   1   7   50.19    2.00
  -2   1   7   47.30    2.10
   1  -1  -7   74.19    2.60
   1  -1  -7   75.29    2.30
   1  -1  -7   74.49    2.60
  -1   1   7   82.29    2.60
  -1   1   7   75.99    2.30
  -1   1   7   74.19    2.50
   0  -1  -7   82.09    2.20
   0  -1  -7   83.49    2.80
   0  -1  -7   84.09    2.20
   0   1   7   76.19    2.30
   0   1   7   80.29    2.70
   0   1   7   79.89    2.40
   0   1   7   82.09    2.30
  -1  -1  -7  433.96   11.00
  -1  -1  -7  421.16   11.50
   1   1   7  421.66   10.90
   1   1   7  417.06   11.30
   1   1   7  414.86   10.80
  -2  -1  -7   42.00    2.20
  -2  -1  -7   46.00    1.90
   2   1   7   42.20    1.60
   2   1   7   38.00    2.20
   2   1   7   42.00    1.80
  -3  -1  -7  111.99    4.10
   3   1   7  115.29    3.60
   3   1   7  114.79    4.50
   4   1   7   75.09    3.10
   4   1   7   78.69    4.10
   5   1   7   10.20    1.70
   5   1   7   13.50    3.10
   6  -2  -7  196.98    7.80
  -6   2   7  181.58    6.70
  -6   2   7  176.08    7.70
   5  -2  -7  105.99    5.10
  -5   2   7  105.79    4.40
  -5   2   7  105.79    5.20
   4  -2  -7    1.30    1.20
   4  -2  -7    2.30    1.30
  -4   2   7    1.90    1.50
  -4   2   7    1.60    1.10
   3  -2  -7  277.87    8.00
   3  -2  -7  287.87    8.40
   3  -2  -7  286.57    8.00
  -3   2   7  282.77    8.00
  -3   2   7  280.57    8.50
  -3   2   7  285.47    8.00
  -3   2   7  285.97    8.00
   2  -2  -7   66.59    2.30
   2  -2  -7   69.49    2.30
   2  -2  -7   63.59    2.60
  -2   2   7   63.59    2.40
  -2   2   7   69.09    2.30
  -2   2   7   62.69    2.50
  -2   2   7   61.79    2.50
   1  -2  -7  120.79    3.60
   1  -2  -7  125.69    4.00
  -1   2   7  123.89    3.60
  -1   2   7  126.09    3.70
  -1   2   7  128.69    4.00
  -1   2   7  127.89    3.70
   0  -2  -7  362.96    9.40
   0  -2  -7  370.26    9.40
   0  -2  -7  362.76   10.00
   0   2   7  356.26    9.90
   0   2   7  363.96    9.30
   0   2   7  360.26    9.50
  -1  -2  -7    6.40    0.50
  -1  -2  -7    5.40    1.00
  -1  -2  -7    8.90    0.50
  -1  -2  -7    6.50    0.70
   1   2   7    4.40    0.80
   1   2   7    5.90    1.00
   1   2   7    6.40    0.60
   1   2   7    6.70    0.70
  -2  -2  -7   24.90    0.90
  -2  -2  -7   25.20    0.90
  -2  -2  -7   24.40    1.40
  -2  -2  -7   23.40    1.90
   2   2   7   25.50    1.30
   2   2   7   21.00    2.00
   2   2   7   22.40    1.50
  -3  -2  -7    3.50    0.50
   3   2   7    3.00    0.90
   3   2   7    1.60    1.40
   4   2   7    6.70    1.40
   4   2   7    5.70    2.00
   5   2   7   26.50    2.40
   5   2   7   35.10    4.10
   6  -3  -7   55.39    5.00
  -6   3   7   60.29    4.10
  -6   3   7   53.29    5.20
   5  -3  -7   18.80    2.40
  -5   3   7   21.50    2.20
  -5   3   7   22.60    2.60
   4  -3  -7   17.90    2.00
   4  -3  -7   15.80    1.70
  -4   3   7   12.90    1.80
  -4   3   7   10.40    1.40
   3  -3  -7  129.79    4.20
   3  -3  -7  130.89    4.60
  -3   3   7  121.19    4.50
  -3   3   7  126.29    4.30
  -3   3   7  137.19    4.30
  -3   3   7  137.09    4.30
   2  -3  -7    0.50    0.60
   2  -3  -7    0.70    0.70
   2  -3  -7    0.30    0.80
  -2   3   7    0.40    0.70
  -2   3   7    0.50    0.70
  -2   3   7    0.70    0.80
  -2   3   7    0.00    0.60
   1  -3  -7   96.09    3.00
   1  -3  -7   92.59    3.40
  -1   3   7  103.09    3.10
  -1   3   7  107.09    3.20
  -1   3   7  101.69    3.00
  -1   3   7   94.09    3.40
   0  -3  -7    0.20    0.40
   0  -3  -7    0.10    0.80
   0  -3  -7    0.30    0.50
   0   3   7    0.70    0.50
   0   3   7   -0.10    0.60
  -1  -3  -7   25.00    1.80
  -1  -3  -7   30.10    1.20
   1   3   7   27.60    1.80
   1   3   7   29.60    1.40
   1   3   7   26.80    1.70
  -2  -3  -7  135.59    3.90
   2   3   7  142.79    5.00
   2   3   7  136.49    4.30
   2   3   7  138.29    4.50
  -3  -3  -7  147.09    4.20
   3   3   7  146.19    5.80
   3   3   7  141.59    4.70
  -4  -3  -7   49.50    2.00
   4   3   7   49.99    3.10
   4   3   7   48.80    3.90
   5   3   7   65.59    6.00
   5   3   7   67.39    4.20
   6  -4  -7   32.20    3.80
  -6   4   7   29.80    2.80
  -6   4   7   22.40    3.70
   5  -4  -7    2.10    1.90
  -5   4   7    2.50    1.90
  -5   4   7    2.50    1.60
   4  -4  -7   41.90    2.90
  -4   4   7   40.00    2.60
  -4   4   7   36.50    2.70
   3  -4  -7   27.80    2.00
   3  -4  -7   32.00    2.20
  -3   4   7   34.20    2.20
  -3   4   7   29.80    2.00
  -3   4   7   29.80    2.00
   2  -4  -7    4.80    1.10
   2  -4  -7    5.50    0.90
  -2   4   7    5.50    1.00
  -2   4   7    6.90    1.10
  -2   4   7    6.20    0.90
  -2   4   7    5.60    1.00
   1  -4  -7  261.67    7.50
   1  -4  -7  269.87    7.90
  -1   4   7  273.37    7.60
  -1   4   7  281.17    7.60
  -1   4   7  274.67    8.00
   0  -4  -7 1132.49   30.00
   0  -4  -7 1156.68   29.50
   0   4   7 1162.98   29.60
   0   4   7 1143.49   30.00
  -1  -4  -7  160.28    5.50
  -1  -4  -7  165.08    4.80
   1   4   7  166.68    5.00
   1   4   7  169.08    5.40
   1   4   7  171.08    5.50
  -2  -4  -7   79.89    2.80
   2   4   7   78.39    3.40
   2   4   7   86.59    3.90
   2   4   7   82.89    3.20
  -3  -4  -7   12.50    1.20
   3   4   7    8.70    2.30
   3   4   7   12.30    1.60
  -4  -4  -7   78.69    3.00
   4   4   7   74.69    5.30
   4   4   7   78.69    4.10
  -6   5   7  128.69    5.70
  -6   5   7  130.09    6.70
  -5   5   7   74.29    3.90
  -5   5   7   85.29    4.90
   4  -5  -7   54.89    3.20
  -4   5   7   44.30    3.30
  -4   5   7   43.40    2.80
   3  -5  -7   16.50    2.00
   3  -5  -7   18.70    1.70
  -3   5   7   19.30    1.90
  -3   5   7   17.70    2.00
  -3   5   7   15.00    1.60
   2  -5  -7   34.40    2.00
   2  -5  -7   34.90    2.20
  -2   5   7   37.30    2.30
  -2   5   7   36.20    2.00
  -2   5   7   35.80    2.10
   1  -5  -7  199.68    6.10
   1  -5  -7  193.28    5.80
  -1   5   7  195.68    6.30
  -1   5   7  191.78    5.80
   0  -5  -7  105.59    4.20
   0  -5  -7  119.29    3.70
   0   5   7  118.79    4.30
   0   5   7  110.89    3.80
  -1  -5  -7    8.20    1.10
  -1  -5  -7    7.60    1.60
   1   5   7    4.80    1.50
   1   5   7    8.30    1.30
   1   5   7    5.80    1.50
  -2  -5  -7   12.10    1.30
   2   5   7   12.20    2.00
   2   5   7   10.50    1.80
   2   5   7   13.70    1.60
  -3  -5  -7    0.40    1.10
   3   5   7    0.40    2.20
   3   5   7   -0.20    1.40
  -4  -5  -7   -0.20    1.30
   4   5   7   -0.10    2.10
   4   5   7   -0.50    3.00
  -5   6   7    9.40    2.00
  -5   6   7    7.90    2.60
  -4   6   7    4.50    2.00
  -4   6   7    6.20    1.50
   3  -6  -7   41.00    2.70
  -3   6   7   42.50    2.90
   2  -6  -7   25.00    2.20
   2  -6  -7   19.90    2.30
  -2   6   7   24.00    2.40
   1  -6  -7    4.80    1.40
   1  -6  -7    7.30    1.20
  -1   6   7    4.50    1.20
  -1   6   7    6.40    1.50
   0  -6  -7   93.39    3.50
   0  -6  -7   97.59    4.10
   0   6   7   97.19    4.10
   0   6   7   93.19    3.70
   0   6   7   92.39    4.00
  -1  -6  -7  462.15   12.80
  -1  -6  -7  454.45   13.60
   1   6   7  481.95   13.10
   1   6   7  482.45   13.70
   1   6   7  470.15   13.50
  -2  -6  -7  321.97    9.30
   2   6   7  332.57   10.20
   2   6   7  330.97    9.70
   2   6   7  321.97   10.50
  -3  -6  -7   -0.70    1.30
   3   6   7    0.60    1.90
   3   6   7    0.30    2.60
  -5   7   7    2.60    2.10
  -4   7   7  112.79    4.80
   3  -7  -7   72.39    5.00
  -3   7   7   73.39    4.10
   2  -7  -7    6.90    1.60
  -2   7   7   11.30    2.10
   1  -7  -7  174.18    5.60
  -1   7   7  164.38    6.20
   0  -7  -7   71.59    3.30
   0   7   7   76.19    3.90
   0   7   7   79.19    3.60
   0   7   7   78.59    3.90
  -1  -7  -7   92.59    3.90
   1   7   7   99.39    4.80
   1   7   7   98.89    4.80
   1   7   7   98.19    4.30
  -2  -7  -7   20.90    2.00
   2   7   7   14.20    2.90
   2   7   7   14.00    2.30
   3   7   7   14.40    3.60
  -4   8   7   79.49    5.00
  -4   8   7   89.39    7.30
  -3   8   7    4.00    2.20
   2  -8  -7   65.29    3.70
  -2   8   7   58.99    4.10
   1  -8  -7    1.40    1.60
  -1   8   7    1.40    2.00
   0  -8  -7    2.20    1.50
   0   8   7    2.40    2.30
  -1  -8  -7    8.70    1.90
   1   8   7    6.40    2.70
  -2  -8  -7   31.10    2.70
  -4   9   7    2.10    4.40
  -3   9   7   18.00    3.20
   2  -9  -7   56.09    4.10
  -2   9   7   49.30    4.70
   1  -9  -7    6.80    2.20
  -1   9   7    6.00    2.80
   0  -9  -7  121.89    5.30
   0   9   7  121.09    6.60
  -1  -9  -7   88.69    5.60
   1   9   7   83.39    6.10
  -1  10  -8    3.50    3.50
  -1  10  -8    2.20    2.70
  -2  10  -8   -1.40    3.30
  -2  10  -8    0.80    2.70
  -2  10  -8    0.00    2.20
   2 -10   8    0.30    2.50
   2 -10   8    0.60    3.60
   1   9  -8   69.69    4.20
   1   9  -8   67.69    5.50
   0   9  -8    4.70    2.40
   0   9  -8    6.80    1.80
   0  -9   8    8.80    2.90
  -1   9  -8   14.30    2.80
  -1   9  -8   16.40    1.80
   1  -9   8   11.60    2.90
   1  -9   8   18.00    2.40
  -2   9  -8  105.49    5.60
  -2   9  -8  112.09    4.00
  -2   9  -8  120.69    5.80
   2  -9   8  115.39    5.90
  -3   9  -8   63.59    2.50
  -3   9  -8   60.69    4.90
  -3   9  -8   61.59    4.90
   3  -9   8   62.39    4.10
   3  -9   8   71.29    5.50
   2   8  -8    0.70    1.90
   2   8  -8    0.60    2.50
   1   8  -8    4.00    2.30
   1   8  -8    4.80    1.60
  -1  -8   8    3.80    2.20
   0   8  -8   18.50    2.70
   0   8  -8   17.10    1.80
   0  -8   8   15.60    2.00
   0  -8   8   13.30    2.50
  -1   8  -8    5.30    2.10
  -1   8  -8    9.10    1.30
  -1   8  -8    6.20    2.30
   1  -8   8    8.30    1.70
   1  -8   8    9.40    2.50
  -2   8  -8   44.70    2.20
  -2   8  -8   46.50    3.40
  -2   8  -8   48.90    4.00
   2  -8   8   43.90    2.90
   2  -8   8   48.40    4.10
  -3   8  -8   28.10    3.40
  -3   8  -8   33.80    1.50
  -3   8  -8   31.30    3.50
   3  -8   8   33.10    2.80
  -4   8  -8    0.70    2.90
   4  -8   8    2.10    1.70
   3   7  -8  149.39    5.80
  -3  -7   8  135.39    6.90
   2   7  -8   22.20    2.20
   2   7  -8   24.10    2.80
  -2  -7   8   21.00    2.90
   1   7  -8   31.00    3.20
   1   7  -8   28.10    2.30
  -1  -7   8   28.10    3.40
  -1  -7   8   27.40    2.70
   0   7  -8    0.20    0.90
   0   7  -8   -0.60    1.40
   0  -7   8    0.00    1.70
   0  -7   8    0.20    1.30
  -1   7  -8  145.59    5.60
  -1   7  -8  157.68    5.90
  -1   7  -8  141.89    4.50
   1  -7   8  142.89    5.80
   1  -7   8  141.49    4.90
  -2   7  -8    0.60    1.60
  -2   7  -8   -0.10    1.80
  -2   7  -8    0.20    0.70
   2  -7   8   -0.30    1.00
  -3   7  -8   84.89    4.30
  -3   7  -8   85.49    4.50
   3  -7   8   87.89    3.60
  -4   7  -8  145.09    6.50
   4  -7   8  131.29    5.00
  -5   7  -8    7.20    3.00
   5  -7   8    5.80    2.00
  -4  -6   8    1.10    3.10
   3   6  -8   88.19    4.30
  -3  -6   8   91.09    5.20
   2   6  -8    2.20    1.70
   2   6  -8    3.20    1.30
  -2  -6   8    2.50    2.00
   1   6  -8  253.87    7.40
   1   6  -8  257.27    8.20
  -1  -6   8  254.57    7.60
  -1  -6   8  253.67    8.30
   0   6  -8   16.90    2.00
   0   6  -8   13.90    1.40
   0  -6   8   11.10    1.80
   0  -6   8   15.40    1.40
  -1   6  -8  162.98    5.70
  -1   6  -8  160.48    5.80
  -1   6  -8  162.18    4.70
   1  -6   8  161.28    5.00
   1  -6   8  169.98    5.90
  -2   6  -8  144.99    4.00
  -2   6  -8  146.29    5.60
  -2   6  -8  145.69    5.20
   2  -6   8  147.69    4.60
  -3   6  -8    6.20    1.60
  -3   6  -8    5.90    2.00
   3  -6   8    3.60    1.10
  -4   6  -8    2.80    2.10
   4  -6   8    1.70    1.20
  -5   6  -8   59.99    4.70
   5  -6   8   53.59    3.40
   4   5  -8    4.80    2.50
  -4  -5   8    4.70    2.70
   3   5  -8   14.50    2.20
   3   5  -8    9.20    2.00
   3   5  -8   11.60    1.80
  -3  -5   8   11.20    2.40
   2   5  -8  359.46   10.50
   2   5  -8  366.26   10.20
   2   5  -8  373.86   10.80
  -2  -5   8  369.66   10.30
  -2  -5   8  346.17   10.90
   1   5  -8  148.99    5.30
   1   5  -8  155.68    4.60
  -1  -5   8  144.29    5.30
  -1  -5   8  147.69    4.80
   0   5  -8    9.50    0.90
   0   5  -8   10.30    1.50
   0  -5   8    6.90    1.00
   0  -5   8    8.20    1.40
  -1   5  -8  144.19    5.10
  -1   5  -8  140.89    3.90
  -1   5  -8  128.79    4.80
   1  -5   8  145.29    5.10
   1  -5   8  145.29    4.20
  -2   5  -8   15.40    1.70
  -2   5  -8   12.10    1.70
   2  -5   8   13.60    1.30
  -3   5  -8   13.00    1.70
  -3   5  -8   11.10    2.00
   3  -5   8    9.60    1.10
  -4   5  -8   30.60    3.00
   4  -5   8   28.60    2.10
  -5   5  -8   43.80    4.20
   5  -5   8   52.89    3.10
   5   4  -8   -0.20    2.90
  -5  -4   8   -0.40    3.00
   4   4  -8   32.00    3.10
   4   4  -8   28.10    3.00
  -4  -4   8   25.50    3.20
   3   4  -8    4.50    1.40
   3   4  -8    4.80    1.50
   3   4  -8    3.20    1.50
  -3  -4   8    5.60    1.90
   2   4  -8   29.40    2.10
   2   4  -8   32.10    1.90
   2   4  -8   32.60    2.30
  -2  -4   8   27.90    2.00
  -2  -4   8   28.70    2.30
   1   4  -8  256.67    7.50
   1   4  -8  266.67    8.10
   1   4  -8  278.27    7.70
  -1  -4   8  285.97    8.30
  -1  -4   8  278.57    7.60
   0   4  -8  365.66    9.70
   0   4  -8  364.66   10.50
   0   4  -8  369.26   10.30
   0   4  -8  369.86    9.60
   0  -4   8  357.06   10.40
   0  -4   8  370.26    9.80
  -1   4  -8   98.39    3.80
  -1   4  -8  105.59    3.70
   1  -4   8  102.09    3.10
   1  -4   8  105.29    3.80
  -2   4  -8   38.60    2.10
  -2   4  -8   35.60    2.30
   2  -4   8   39.80    1.50
  -3   4  -8  345.97   10.30
   3  -4   8  337.17    9.20
  -4   4  -8   33.20    3.00
   4  -4   8   30.80    1.90
  -5   4  -8    3.50    2.30
   5  -4   8    4.60    1.40
   5   3  -8   16.90    3.10
  -5  -3   8   15.20    3.00
   4   3  -8   87.59    4.50
   4   3  -8   90.29    4.00
  -4  -3   8   78.59    4.60
   3   3  -8   56.49    3.00
   3   3  -8   55.39    2.90
   3   3  -8   62.19    2.80
  -3  -3   8   57.59    3.40
   2   3  -8  322.17    9.60
   2   3  -8  335.17    9.20
   2   3  -8  350.56    9.60
  -2  -3   8  334.17    9.90
  -2  -3   8  337.97    9.30
   1   3  -8  423.06   11.30
   1   3  -8  419.96   11.60
   1   3  -8  416.16   11.10
  -1  -3   8  418.76   11.70
  -1  -3   8  421.46   11.20
   0   3  -8   75.69    2.10
   0   3  -8   75.29    2.90
   0   3  -8   71.09    2.10
   0   3  -8   72.59    2.80
   0   3  -8   74.99    2.40
   0  -3   8   66.59    2.80
   0  -3   8   72.29    2.40
   0  -3   8   71.19    2.30
  -1   3  -8    5.30    1.00
  -1   3  -8    5.20    0.70
  -1   3  -8    6.40    1.10
   1  -3   8    5.10    0.50
   1  -3   8    5.10    0.50
  -2   3  -8   68.79    2.90
  -2   3  -8   69.79    2.70
   2  -3   8   63.29    2.00
   2  -3   8   67.29    2.10
   2  -3   8   64.29    2.40
  -3   3  -8   87.29    3.70
   3  -3   8   85.49    3.40
   3  -3   8   88.19    2.80
  -4   3  -8    0.70    1.50
   4  -3   8   -0.10    0.80
  -5   3  -8  141.09    6.40
   5  -3   8  153.78    5.00
  -6   3  -8   14.30    3.80
   5   2  -8   49.50    4.00
  -5  -2   8   44.50    4.10
   4   2  -8   29.20    2.60
   4   2  -8   29.00    3.00
  -4  -2   8   29.30    2.90
   3   2  -8   -0.40    1.00
   3   2  -8    0.30    1.20
   3   2  -8   -0.50    0.90
  -3  -2   8    0.00    1.00
  -3  -2   8   -0.50    1.10
   2   2  -8  105.49    3.70
   2   2  -8   96.79    3.60
   2   2  -8   99.39    3.30
  -2  -2   8  111.19    3.40
  -2  -2   8  104.19    3.90
  -2  -2   8  102.39    3.50
   1   2  -8  105.29    3.40
   1   2  -8  101.19    3.50
   1   2  -8  109.49    3.10
   1   2  -8  101.69    3.00
  -1  -2   8   94.69    3.50
  -1  -2   8  103.29    3.10
   0   2  -8  308.67    8.30
   0   2  -8  296.07    8.00
   0   2  -8  295.97    8.40
   0  -2   8  289.57    7.70
   0  -2   8  283.87    8.30
   0  -2   8  298.87    7.70
  -1   2  -8  254.47    7.20
  -1   2  -8  256.87    7.40
  -1   2  -8  260.87    7.00
   1  -2   8  259.27    6.50
   1  -2   8  248.28    6.50
  -2   2  -8  897.81   23.50
  -2   2  -8  929.91   23.10
   2  -2   8  855.11   22.60
   2  -2   8  891.81   22.60
   2  -2   8  877.41   23.20
  -3   2  -8    1.00    1.00
   3  -2   8   -0.10    1.10
   3  -2   8    0.70    0.50
  -4   2  -8   34.10    2.70
   4  -2   8   36.10    2.90
   4  -2   8   32.30    1.80
  -5   2  -8   30.00    3.20
   5  -2   8   27.90    2.30
   5  -2   8   26.10    3.10
  -6   2  -8   46.30    5.50
  -6  -1   8  108.79    5.70
  -6  -1   8  100.19    9.20
   5   1  -8    4.40    2.20
  -5  -1   8    3.10    2.20
  -5  -1   8    5.50    1.90
   4   1  -8   79.19    4.10
   4   1  -8   83.19    3.50
  -4  -1   8   79.89    3.60
  -4  -1   8   81.29    4.20
   3   1  -8   31.50    1.90
   3   1  -8   32.30    2.40
   3   1  -8   32.30    2.00
  -3  -1   8   33.00    2.20
  -3  -1   8   30.60    2.10
  -3  -1   8   32.90    2.00
   2   1  -8    0.30    0.60
   2   1  -8    0.20    0.70
   2   1  -8   -0.10    0.70
  -2  -1   8    0.00    0.70
  -2  -1   8    0.10    0.80
  -2  -1   8    0.00    0.60
   1   1  -8 2918.81   75.89
   1   1  -8 3002.20   75.89
   1   1  -8 2992.90   75.49
   1   1  -8 3153.78   75.49
  -1  -1   8 2940.91   75.49
  -1  -1   8 2912.71   75.99
   0   1  -8 1125.09   29.10
   0   1  -8 1146.29   29.20
   0  -1   8 1139.59   29.20
   0  -1   8 1103.59   28.60
   0  -1   8 1145.09   28.60
  -1   1  -8    8.00    0.90
  -1   1  -8    5.30    0.70
  -1   1  -8    5.80    0.80
  -2   1  -8  627.54   16.70
  -2   1  -8  647.74   16.40
  -2   1  -8  620.04   16.70
   2  -1   8  622.94   16.70
   2  -1   8  613.74   15.90
   2  -1   8  611.74   15.90
   2  -1   8  624.54   16.30
  -3   1  -8   22.70    2.00
   3  -1   8   24.50    1.20
   3  -1   8   20.90    2.10
  -4   1  -8    2.40    1.60
   4  -1   8    0.20    1.70
   4  -1   8    0.10    0.80
  -5   1  -8    7.60    2.30
   5  -1   8    9.90    2.70
   5  -1   8    7.90    1.50
   6   0  -8   -0.50    3.00
  -6   0   8   -0.20    3.00
  -6   0   8    0.00    2.20
   5   0  -8  152.78    6.30
  -5   0   8  156.98    5.70
  -5   0   8  156.38    6.60
   4   0  -8  568.94   15.90
   4   0  -8  569.04   15.20
  -4   0   8  551.84   15.90
  -4   0   8  543.55   15.20
   3   0  -8    6.60    1.10
   3   0  -8    7.70    1.10
   3   0  -8    6.20    1.30
  -3   0   8    8.30    1.10
  -3   0   8    8.50    1.10
  -3   0   8    8.80    1.40
  -3   0   8    6.40    1.10
   2   0  -8    3.20    0.60
   2   0  -8    4.20    0.90
   2   0  -8    2.60    0.90
   2   0  -8    3.90    0.80
  -2   0   8    3.40    0.60
  -2   0   8    3.10    0.90
  -2   0   8    2.60    0.80
  -2   0   8    3.10    0.80
   1   0  -8  312.57    8.40
   1   0  -8  320.27    8.90
   1   0  -8  341.47    8.50
   1   0  -8  315.47    8.90
  -1   0   8  324.77    8.90
  -1   0   8  317.87    8.50
   0   0  -8  293.27    8.00
   0   0  -8  287.17    8.00
   0   0   8  287.57    7.90
   0   0   8  297.37    7.50
   0   0   8  290.87    8.00
   0   0   8  281.37    7.50
  -1   0  -8  195.58    5.60
  -1   0  -8  199.48    5.80
  -1   0  -8  197.48    5.60
   1   0   8  190.68    5.60
  -2   0  -8  567.74   15.10
  -2   0  -8  576.34   15.40
   2   0   8  561.24   15.40
   2   0   8  548.25   14.50
   2   0   8  579.44   14.90
   2   0   8  568.44   14.50
  -3   0  -8  187.78    5.90
   3   0   8  186.08    6.20
   3   0   8  191.78    5.30
  -4   0  -8   84.89    4.00
   4   0   8   76.19    3.00
   4   0   8   82.19    4.40
   5   0   8    0.20    2.50
   5   0   8    0.90    1.30
   6  -1  -8   89.99    5.50
  -6   1   8   73.39    5.40
  -6   1   8   79.99    4.50
   5  -1  -8   75.49    4.20
  -5   1   8   81.29    3.80
  -5   1   8   83.19    4.70
   4  -1  -8  730.13   20.70
   4  -1  -8  779.52   20.20
  -4   1   8  741.73   20.80
  -4   1   8  777.82   20.30
   3  -1  -8   55.59    2.30
   3  -1  -8   50.99    2.80
  -3   1   8   63.99    2.40
  -3   1   8   57.99    2.50
  -3   1   8   47.70    2.60
  -3   1   8   55.39    2.50
   2  -1  -8   10.30    0.90
   2  -1  -8   10.00    1.10
   2  -1  -8   10.00    1.00
   2  -1  -8    9.40    1.20
  -2   1   8   11.40    1.20
  -2   1   8   11.80    1.00
  -2   1   8   11.30    1.10
  -2   1   8    8.50    1.00
   1  -1  -8  170.08    4.50
   1  -1  -8  168.18    5.00
   1  -1  -8  154.98    4.40
   1  -1  -8  165.98    5.00
  -1   1   8  164.58    4.90
  -1   1   8  159.48    4.70
  -1   1   8  161.98    4.50
   0  -1  -8  195.08    5.60
   0  -1  -8  198.28    5.70
   0   1   8  197.08    5.30
   0   1   8  192.58    5.10
   0   1   8  193.78    5.10
   0   1   8  184.18    5.60
  -1  -1  -8  525.15   13.90
  -1  -1  -8  532.85   13.40
   1   1   8  501.35   13.70
   1   1   8  514.35   13.20
   1   1   8  497.05   13.20
  -2  -1  -8  107.69    3.50
   2   1   8  104.09    3.10
   2   1   8  104.29    3.40
  -3  -1  -8   14.80    1.70
   3   1   8   19.00    2.10
   3   1   8   14.30    1.30
   4   1   8  103.19    4.80
   4   1   8   96.39    3.60
   5   1   8    1.50    2.80
   5   1   8    0.20    1.40
   6  -2  -8    6.20    2.90
  -6   2   8    7.80    2.30
  -6   2   8    5.70    3.10
   5  -2  -8    0.80    2.00
  -5   2   8    0.10    1.50
  -5   2   8    1.10    2.00
   4  -2  -8   52.59    2.70
   4  -2  -8   51.29    3.20
  -4   2   8   47.30    2.60
  -4   2   8   47.10    3.00
   3  -2  -8  503.05   14.10
   3  -2  -8  527.65   13.70
  -3   2   8  508.55   13.70
  -3   2   8  511.25   13.80
  -3   2   8  491.85   14.10
  -3   2   8  511.55   13.70
   2  -2  -8   36.30    1.60
   2  -2  -8   33.60    2.00
  -2   2   8   34.60    1.70
  -2   2   8   36.00    1.90
  -2   2   8   38.20    1.90
  -2   2   8   39.10    1.70
   1  -2  -8   55.39    2.40
   1  -2  -8   63.49    2.10
  -1   2   8   69.89    2.40
  -1   2   8   64.79    2.20
  -1   2   8   64.39    2.10
  -1   2   8   67.19    2.50
   0  -2  -8   22.00    0.90
   0  -2  -8   17.20    1.40
   0  -2  -8   19.80    0.80
   0   2   8   18.20    1.30
   0   2   8   21.60    1.00
   0   2   8   20.50    0.90
  -1  -2  -8  575.94   14.80
  -1  -2  -8  592.64   14.80
  -1  -2  -8  570.54   15.80
  -1  -2  -8  616.24   15.00
   1   2   8  551.74   15.20
   1   2   8  588.64   15.50
   1   2   8  584.74   15.10
  -2  -2  -8    0.70    1.20
   2   2   8   -0.20    0.60
   2   2   8    0.80    0.80
   2   2   8    0.10    1.10
   3   2   8   27.50    2.60
   3   2   8   26.80    1.80
   4   2   8  159.18    6.60
   4   2   8  163.28    5.30
   5   2   8   51.69    5.40
   5   2   8   46.40    3.40
   6  -3  -8   82.09    5.80
  -6   3   8   88.99    4.80
  -6   3   8   72.19    5.80
   5  -3  -8  108.19    5.10
  -5   3   8   95.99    4.30
  -5   3   8   96.99    4.80
   4  -3  -8    0.30    1.20
   4  -3  -8   -0.40    1.40
  -4   3   8    0.80    1.20
  -4   3   8    0.50    1.50
   3  -3  -8    3.00    1.20
   3  -3  -8    2.90    0.90
  -3   3   8    3.30    1.00
  -3   3   8    3.30    1.20
  -3   3   8    3.10    1.00
  -3   3   8    4.50    1.00
   2  -3  -8  157.88    5.20
   2  -3  -8  156.48    4.80
  -2   3   8  166.68    4.80
  -2   3   8  155.78    5.10
  -2   3   8  164.78    4.90
  -2   3   8  167.98    5.00
   1  -3  -8  366.96   10.50
   1  -3  -8  371.96   10.00
  -1   3   8  374.66   10.10
  -1   3   8  388.76   10.20
  -1   3   8  366.16   10.50
  -1   3   8  396.96   10.00
   0  -3  -8   70.49    2.90
   0  -3  -8   73.99    2.40
   0  -3  -8   81.29    2.50
   0   3   8   77.29    2.50
   0   3   8   74.29    3.00
  -1  -3  -8   12.40    0.90
  -1  -3  -8   13.60    1.60
   1   3   8   15.20    1.80
   1   3   8   12.80    1.30
   1   3   8   11.30    1.10
  -2  -3  -8  211.58    6.90
  -2  -3  -8  213.28    5.70
   2   3   8  213.08    6.90
   2   3   8  204.98    6.40
   2   3   8  206.68    6.10
  -3  -3  -8   73.29    2.30
   3   3   8   73.69    3.10
   3   3   8   75.79    4.20
   4   3   8   58.89    3.40
   4   3   8   64.99    4.80
   5   3   8    1.00    2.10
   6  -4  -8  115.89    6.50
  -6   4   8  128.59    5.50
  -6   4   8  102.99    6.60
   5  -4  -8   43.60    3.70
  -5   4   8   36.00    3.20
  -5   4   8   40.80    3.50
   4  -4  -8   53.99    3.40
   4  -4  -8   65.19    3.20
  -4   4   8   64.99    3.20
  -4   4   8   56.59    3.50
   3  -4  -8   27.00    2.20
   3  -4  -8   23.90    1.90
  -3   4   8   22.80    2.00
  -3   4   8   20.10    2.00
  -3   4   8   23.00    2.00
  -3   4   8   27.80    2.50
   2  -4  -8   55.79    2.70
   2  -4  -8   61.39    2.40
  -2   4   8   58.29    3.00
  -2   4   8   60.29    2.50
  -2   4   8   57.29    2.70
   1  -4  -8   73.89    2.70
   1  -4  -8   68.29    3.00
  -1   4   8   83.29    3.10
  -1   4   8   79.79    2.70
   0  -4  -8    1.40    0.60
   0  -4  -8    1.30    0.90
   0   4   8    2.00    1.00
   0   4   8    1.90    0.70
  -1  -4  -8    3.60    1.30
  -1  -4  -8    2.50    0.70
   1   4   8    2.70    1.30
   1   4   8    2.60    0.80
   1   4   8    2.10    1.00
  -2  -4  -8    0.30    0.60
   2   4   8    0.40    1.20
   2   4   8    0.40    1.40
   2   4   8   -0.30    0.90
  -3  -4  -8    0.80    0.80
   3   4   8    0.70    2.00
   3   4   8    1.00    1.30
  -4  -4  -8  118.39    3.60
   4   4   8  125.99    5.10
   4   4   8  120.69    6.50
  -6   5   8    0.20    3.10
  -6   5   8   -0.90    2.30
   5  -5  -8   14.40    2.60
  -5   5   8   15.30    2.70
  -5   5   8   17.50    2.20
   4  -5  -8   52.89    3.40
  -4   5   8   47.90    3.00
  -4   5   8   51.39    3.40
   3  -5  -8   34.80    2.50
   3  -5  -8   34.80    2.20
  -3   5   8   31.20    2.50
  -3   5   8   29.20    2.30
   2  -5  -8    2.90    1.20
   2  -5  -8    3.10    1.00
  -2   5   8    2.30    1.10
  -2   5   8    2.70    0.90
   1  -5  -8    4.30    1.20
   1  -5  -8    6.50    1.00
  -1   5   8    5.30    1.00
  -1   5   8    4.80    1.20
   0  -5  -8    1.10    1.20
   0  -5  -8    1.50    0.80
   0   5   8    0.50    1.20
   0   5   8    1.40    0.90
  -1  -5  -8  403.86   11.40
  -1  -5  -8  368.86   10.40
   1   5   8  395.36   11.40
   1   5   8  382.96   11.20
   1   5   8  377.66   10.70
  -2  -5  -8    0.60    0.90
   2   5   8    1.70    1.30
   2   5   8    2.60    1.90
   2   5   8   -0.10    1.50
  -3  -5  -8   77.39    3.10
   3   5   8   75.99    4.70
   3   5   8   84.19    4.00
  -4  -5  -8   12.30    1.40
   4   5   8   14.70    3.70
   4   5   8   10.60    2.50
  -5   6   8   67.39    4.80
   3  -6  -8   37.20    2.60
   3  -6  -8   33.20    2.90
  -3   6   8   31.50    2.60
   2  -6  -8  217.38    6.70
   2  -6  -8  218.88    7.00
  -2   6   8  219.38    7.20
   1  -6  -8  132.39    4.50
   1  -6  -8  143.29    5.10
  -1   6   8  143.79    4.70
  -1   6   8  134.39    5.10
   0  -6  -8  172.38    6.10
   0  -6  -8  170.18    5.30
   0   6   8  176.98    6.20
   0   6   8  166.68    5.60
   0   6   8  173.88    6.10
  -1  -6  -8    2.20    1.90
  -1  -6  -8    2.40    1.00
   1   6   8    2.60    1.40
   1   6   8   -0.30    1.60
   1   6   8    2.40    1.80
  -2  -6  -8    4.80    1.30
   2   6   8    6.30    2.20
   2   6   8    6.70    1.70
  -3  -6  -8   50.59    2.90
   3   6   8   51.89    4.00
   3   6   8   49.00    4.90
  -5   7   8   60.89    4.30
  -4   7   8    0.10    2.00
   3  -7  -8   48.70    3.30
  -3   7   8   44.40    3.50
   2  -7  -8    0.10    1.30
  -2   7   8   -0.50    1.50
   1  -7  -8    9.90    1.60
  -1   7   8   11.30    2.20
   0  -7  -8    2.50    1.80
   0  -7  -8    1.90    1.30
   0   7   8    1.40    1.80
   0   7   8    3.10    1.90
   0   7   8    2.00    1.60
  -1  -7  -8    9.20    1.50
   1   7   8    8.60    2.00
   1   7   8    8.90    2.40
   1   7   8    5.70    2.20
  -2  -7  -8    1.10    1.50
   2   7   8    0.80    2.00
   2   7   8    1.30    2.70
  -4   8   8    7.20    2.70
  -3   8   8   55.49    4.30
   2  -8  -8   54.09    3.50
  -2   8   8   57.89    4.20
   1  -8  -8    6.50    1.80
  -1   8   8    9.00    2.40
   0  -8  -8  367.56   10.60
   0   8   8  363.66   11.70
  -1  -8  -8   96.89    4.40
   1   8   8   96.49    5.20
  -3   9   8    0.20    2.80
   2  -9  -8    4.50    2.20
  -2   9   8    3.10    2.70
   1  -9  -8   52.19    3.90
  -1   9   8   47.60    4.40
   0  -9  -8    2.80    2.00
   0   9   8    2.70    3.00
   1 -10   9   43.20    5.00
   2 -10   9   18.20    3.80
   2 -10   9   15.40    2.90
   1   9  -9   21.90    3.50
   1   9  -9   21.90    2.50
   0   9  -9    0.90    1.60
   0   9  -9    0.50    2.70
   0  -9   9    2.60    2.80
  -1   9  -9    2.30    1.40
  -1   9  -9    3.90    2.60
   1  -9   9    3.10    2.80
   1  -9   9    1.60    2.00
  -2   9  -9   13.30    2.70
  -2   9  -9   13.00    1.40
  -2   9  -9   15.40    3.00
   2  -9   9   11.30    3.00
  -3   9  -9   51.09    4.70
  -3   9  -9   43.00    5.30
   3  -9   9   44.40    5.40
   3  -9   9   38.00    3.60
   2   8  -9    4.40    2.10
   2   8  -9    2.80    2.60
  -2  -8   9    5.80    3.10
   1   8  -9    5.50    2.50
   1   8  -9    5.30    1.60
  -1  -8   9    4.60    2.60
   0   8  -9    3.20    1.30
   0   8  -9    4.20    2.30
   0  -8   9    5.10    1.80
   0  -8   9    3.20    2.30
  -1   8  -9    2.00    2.00
  -1   8  -9    0.80    2.20
  -1   8  -9    0.70    1.00
   1  -8   9    1.80    1.50
   1  -8   9    0.80    2.20
  -2   8  -9   15.00    1.40
  -2   8  -9   13.70    2.50
  -2   8  -9   15.70    2.60
   2  -8   9   11.50    2.50
   2  -8   9   16.10    1.90
  -3   8  -9  140.39    6.60
  -3   8  -9  146.39    6.00
   3  -8   9  134.59    5.20
  -4   8  -9  230.38    9.00
   4  -8   9  227.48    7.50
   3   7  -9    9.00    2.40
  -3  -7   9    6.20    3.20
   2   7  -9    8.60    2.20
   2   7  -9    7.20    1.70
  -2  -7   9    9.20    2.70
   1   7  -9    1.20    1.20
   1   7  -9    2.70    1.90
  -1  -7   9    2.60    2.10
  -1  -7   9    1.00    1.40
   0   7  -9   24.90    2.70
   0   7  -9   24.30    1.90
   0  -7   9   23.10    2.70
   0  -7   9   26.00    2.40
  -1   7  -9  302.27    9.50
  -1   7  -9  301.07    8.10
  -1   7  -9  297.17    9.60
   1  -7   9  293.47    9.60
   1  -7   9  289.27    8.60
  -2   7  -9    1.10    1.90
  -2   7  -9    1.50    1.70
  -2   7  -9    2.50    0.60
   2  -7   9    1.80    2.00
   2  -7   9    2.30    1.20
  -3   7  -9    0.50    1.80
  -3   7  -9   -0.20    2.00
   3  -7   9    0.20    1.20
  -4   7  -9   54.09    4.80
   4  -7   9   55.99    3.30
  -4  -6   9   27.50    4.10
   3   6  -9  117.69    4.80
  -3  -6   9   93.69    5.60
   2   6  -9  451.05   13.40
   2   6  -9  477.85   12.90
  -2  -6   9  452.55   13.70
   1   6  -9   14.10    1.40
   1   6  -9   17.30    2.20
  -1  -6   9   13.90    2.10
  -1  -6   9   18.00    1.70
   0   6  -9   15.20    2.00
   0   6  -9   16.10    1.40
   0  -6   9   11.90    1.90
   0  -6   9   14.70    1.40
  -1   6  -9   13.00    2.00
  -1   6  -9   10.40    1.70
  -1   6  -9   12.00    1.10
   1  -6   9   11.70    2.00
  -2   6  -9   21.30    2.40
  -2   6  -9   21.80    2.40
   2  -6   9   22.90    1.70
  -3   6  -9   94.09    4.20
  -3   6  -9   90.29    4.50
   3  -6   9   89.59    3.40
  -4   6  -9  130.89    5.90
   4  -6   9  133.29    4.60
  -5   6  -9   41.70    4.50
   5  -6   9   39.00    3.20
   4   5  -9    6.90    2.60
   4   5  -9   10.00    2.30
  -4  -5   9   12.10    3.20
   3   5  -9    1.30    1.50
   3   5  -9   -0.50    1.60
   3   5  -9    1.00    1.80
  -3  -5   9    0.60    2.10
   2   5  -9  328.07   10.50
   2   5  -9  347.37   10.40
   2   5  -9  347.27    9.80
  -2  -5   9  349.47   10.70
  -2  -5   9  363.06   10.00
   1   5  -9   94.79    4.00
   1   5  -9   95.49    3.30
  -1  -5   9   93.69    3.40
  -1  -5   9   93.69    4.10
   0   5  -9    0.00    0.60
   0   5  -9    0.70    1.10
   0  -5   9   -0.30    1.30
   0  -5   9    0.60    0.80
  -1   5  -9    5.20    1.30
  -1   5  -9    5.00    0.50
  -1   5  -9    5.40    0.50
  -1   5  -9    3.80    1.30
   1  -5   9    4.60    1.30
   1  -5   9    4.00    0.80
  -2   5  -9  305.47    8.90
  -2   5  -9  294.47    9.20
   2  -5   9  296.77    8.20
  -3   5  -9  445.06   13.00
   3  -5   9  433.76   11.80
  -4   5  -9    2.00    1.80
   4  -5   9    4.10    1.10
  -5   5  -9    9.20    2.70
   5  -5   9    8.40    1.70
   5   4  -9    7.60    3.30
  -5  -4   9    7.00    3.10
   4   4  -9    1.70    1.70
   4   4  -9    2.80    2.20
  -4  -4   9    2.20    2.10
   3   4  -9  121.99    4.50
   3   4  -9  123.99    5.00
   3   4  -9  132.19    4.90
  -3  -4   9  117.79    5.20
   2   4  -9  474.75   12.60
   2   4  -9  456.55   12.90
   2   4  -9  474.35   13.10
  -2  -4   9  446.46   12.60
   1   4  -9  485.35   12.80
   1   4  -9  490.45   13.50
   1   4  -9  474.45   13.00
  -1  -4   9  496.15   13.00
  -1  -4   9  471.55   13.60
   0   4  -9   16.50    1.00
   0   4  -9   14.60    1.20
   0   4  -9   16.30    0.90
   0   4  -9   12.50    1.50
   0  -4   9   16.40    1.20
   0  -4   9   13.90    1.70
  -1   4  -9   23.50    1.70
  -1   4  -9   24.60    1.90
   1  -4   9   23.60    1.20
   1  -4   9   23.60    1.90
  -2   4  -9   49.80    2.50
  -2   4  -9   51.19    2.90
   2  -4   9   49.99    1.80
  -3   4  -9   -0.20    1.40
   3  -4   9    0.00    0.60
  -4   4  -9    1.40    1.90
   4  -4   9    1.50    0.90
  -5   4  -9   32.00    3.70
   5  -4   9   32.80    2.50
   5   3  -9   -0.50    2.60
  -5  -3   9    0.60    2.90
   4   3  -9    6.20    1.70
   4   3  -9    4.30    2.00
  -4  -3   9    5.40    2.00
   3   3  -9   96.19    4.20
   3   3  -9  103.69    3.80
   3   3  -9   99.49    4.00
  -3  -3   9   91.49    4.30
  -3  -3   9  105.39    3.90
   2   3  -9  122.89    3.90
   2   3  -9  117.49    4.20
   2   3  -9  121.49    4.30
  -2  -3   9  118.09    3.90
   1   3  -9   24.40    1.30
   1   3  -9   25.30    1.90
   1   3  -9   27.10    1.60
  -1  -3   9   27.60    1.40
  -1  -3   9   25.50    2.00
   0   3  -9  174.18    4.50
   0   3  -9  169.38    4.50
   0   3  -9  173.48    5.60
   0   3  -9  170.88    5.40
   0   3  -9  175.78    5.00
   0  -3   9  177.98    5.60
   0  -3   9  169.48    4.80
  -1   3  -9   39.60    2.00
  -1   3  -9   36.60    1.60
  -1   3  -9   40.50    2.20
   1  -3   9   37.90    1.30
   1  -3   9   35.40    1.30
  -2   3  -9   30.20    2.00
  -2   3  -9   31.40    1.80
   2  -3   9   27.10    1.60
   2  -3   9   28.30    1.10
   2  -3   9   28.60    1.10
  -3   3  -9   67.39    3.30
   3  -3   9   62.69    2.20
  -4   3  -9  214.88    7.60
   4  -3   9  221.98    6.30
  -5   3  -9   23.90    3.00
   5  -3   9   23.90    2.30
   5   2  -9   30.80    3.60
  -5  -2   9   35.10    3.90
   4   2  -9    2.60    1.40
   4   2  -9    3.00    1.80
  -4  -2   9    2.40    1.90
   3   2  -9    4.90    1.30
   3   2  -9    4.00    1.20
   3   2  -9    3.50    1.00
  -3  -2   9    3.50    1.50
  -3  -2   9    5.20    1.20
   2   2  -9  320.87    8.80
   2   2  -9  332.57    9.30
   2   2  -9  325.07    9.30
  -2  -2   9  315.57    9.50
  -2  -2   9  326.87    8.90
   1   2  -9  533.55   13.00
   1   2  -9  489.05   13.00
   1   2  -9  500.55   13.40
   1   2  -9  496.85   13.60
  -1  -2   9  487.45   13.60
  -1  -2   9  489.65   13.10
   0   2  -9  509.75   13.10
   0   2  -9  514.45   13.30
   0   2  -9  506.25   13.40
   0  -2   9  476.95   12.70
   0  -2   9  486.55   12.70
   0  -2   9  463.75   13.30
  -1   2  -9   99.49    3.60
  -1   2  -9  104.59    3.30
  -1   2  -9  103.89    3.50
  -2   2  -9  401.96   10.70
  -2   2  -9  391.16   10.80
  -2   2  -9  409.86   11.10
   2  -2   9  386.36   10.80
   2  -2   9  390.16   10.00
   2  -2   9  378.16   10.00
  -3   2  -9    7.10    1.50
   3  -2   9    5.10    1.30
   3  -2   9    5.70    0.60
  -4   2  -9    1.60    1.60
   4  -2   9    0.50    0.80
   4  -2   9    1.80    1.70
  -5   2  -9   11.10    2.70
   5  -2   9   12.10    2.70
   5  -2   9   12.50    1.60
   5   1  -9  317.87   10.60
  -5  -1   9  312.37   10.60
   4   1  -9    0.30    1.20
   4   1  -9    0.60    1.60
  -4  -1   9    0.30    1.70
   3   1  -9  135.89    4.50
   3   1  -9  136.79    4.40
   3   1  -9  134.19    4.90
  -3  -1   9  133.09    4.90
  -3  -1   9  136.19    4.40
   2   1  -9  164.38    5.10
   2   1  -9  155.78    4.60
   2   1  -9  154.18    5.00
  -2  -1   9  158.18    5.30
  -2  -1   9  161.48    4.70
   1   1  -9  328.37    9.10
   1   1  -9  330.57    8.70
   1   1  -9  322.67    9.20
   1   1  -9  344.17    8.70
  -1  -1   9  324.77    9.30
  -1  -1   9  332.47    8.80
   0   1  -9   66.39    2.30
   0   1  -9   62.59    2.40
   0  -1   9   63.19    1.80
   0  -1   9   57.79    2.30
   0  -1   9   59.79    1.80
  -1   1  -9   98.19    3.30
  -1   1  -9  104.19    3.40
  -1   1  -9   97.49    3.30
  -2   1  -9  119.39    4.10
  -2   1  -9  123.49    3.90
  -2   1  -9  123.59    4.10
   2  -1   9  117.39    3.20
   2  -1   9  117.39    3.20
   2  -1   9  119.39    4.00
   2  -1   9  119.59    3.80
  -3   1  -9  208.38    6.80
   3  -1   9  228.48    7.00
   3  -1   9  221.38    6.00
  -4   1  -9   62.49    3.50
   4  -1   9   63.29    3.90
   4  -1   9   61.29    2.50
  -5   1  -9    1.30    2.20
   5  -1   9    2.10    2.50
   5  -1   9    1.30    1.30
   6   0  -9   69.09    5.80
  -6   0   9   72.09    5.30
  -6   0   9   72.09    4.80
   5   0  -9  174.18    6.70
  -5   0   9  164.98    7.00
   4   0  -9   94.19    3.80
   4   0  -9  101.09    4.30
  -4   0   9   95.69    4.40
   3   0  -9  172.88    5.40
   3   0  -9  179.68    5.90
   3   0  -9  173.68    5.50
  -3   0   9  179.78    5.40
  -3   0   9  173.28    6.00
  -3   0   9  186.88    5.50
   2   0  -9   19.10    1.20
   2   0  -9   24.00    1.60
   2   0  -9   22.60    1.60
  -2   0   9   19.50    1.60
  -2   0   9   21.80    1.60
  -2   0   9   22.90    1.60
  -2   0   9   24.70    1.40
   1   0  -9  109.79    3.10
   1   0  -9  117.99    3.70
   1   0  -9  116.59    3.20
   1   0  -9  110.79    3.70
  -1   0   9  105.49    3.60
  -1   0   9  105.89    3.60
  -1   0   9  111.79    3.20
   0   0  -9 1302.97   33.10
   0   0  -9 1266.87   33.10
   0   0   9 1285.47   33.10
   0   0   9 1286.67   32.90
   0   0   9 1244.38   32.50
   0   0   9 1309.97   32.50
  -1   0  -9   64.09    2.40
  -1   0  -9   69.09    2.60
  -1   0  -9   64.59    2.40
   1   0   9   58.69    2.30
  -2   0  -9   67.39    2.90
  -2   0  -9   70.39    2.70
   2   0   9   66.09    2.50
   2   0   9   64.59    1.90
   2   0   9   67.39    2.90
   2   0   9   62.19    1.90
  -3   0  -9  232.18    7.00
   3   0   9  233.68    7.40
   3   0   9  217.38    6.20
  -4   0  -9   80.39    3.90
   4   0   9   79.09    3.00
   4   0   9   83.39    4.50
   5   0   9    5.40    1.50
   5   0   9    3.10    2.80
   6  -1  -9    5.70    2.90
  -6   1   9    8.60    2.40
  -6   1   9    9.50    3.40
   5  -1  -9    0.10    2.00
  -5   1   9    0.60    2.10
  -5   1   9   -0.80    1.80
   4  -1  -9    1.40    1.50
   4  -1  -9    0.70    1.20
  -4   1   9    0.20    1.40
   3  -1  -9  485.65   13.60
   3  -1  -9  474.45   13.10
  -3   1   9  482.05   13.20
  -3   1   9  491.95   13.30
  -3   1   9  489.85   13.10
  -3   1   9  500.05   13.70
   2  -1  -9  171.38    5.40
   2  -1  -9  171.18    5.00
   2  -1  -9  175.98    5.40
  -2   1   9  169.28    5.30
  -2   1   9  176.48    5.00
  -2   1   9  175.48    5.40
   1  -1  -9  744.63   19.60
   1  -1  -9  721.23   19.00
   1  -1  -9  727.73   19.60
   1  -1  -9  783.92   19.00
  -1   1   9  752.72   19.40
  -1   1   9  725.03   19.10
  -1   1   9  732.63   19.50
   0  -1  -9  346.57    9.50
   0  -1  -9  336.97    9.50
   0   1   9  342.87    9.10
   0   1   9  344.87    8.90
   0   1   9  341.57    8.90
   0   1   9  336.57    9.40
  -1  -1  -9  128.69    4.10
  -1  -1  -9  119.99    3.60
   1   1   9  114.29    3.30
   1   1   9  112.99    3.80
   1   1   9  121.89    3.30
  -2  -1  -9    0.10    0.90
  -2  -1  -9    0.10    0.70
   2   1   9    0.10    0.80
   2   1   9    0.00    0.40
   2   1   9    0.00    0.90
   3   1   9   16.30    1.40
   3   1   9   19.10    2.20
   4   1   9   81.49    4.70
   4   1   9   78.69    3.20
   5   1   9  149.19    7.30
   5   1   9  146.19    5.40
   6  -2  -9  114.79    6.40
  -6   2   9  100.39    5.10
  -6   2   9   95.09    6.30
   5  -2  -9   39.90    3.40
  -5   2   9   41.90    3.50
  -5   2   9   35.70    3.20
   4  -2  -9    9.80    1.40
   4  -2  -9    7.30    1.70
  -4   2   9    7.60    1.60
  -4   2   9    8.00    1.90
   3  -2  -9  721.13   18.80
   3  -2  -9  731.33   19.40
  -3   2   9  696.13   19.30
  -3   2   9  720.33   19.00
  -3   2   9  707.93   18.80
  -3   2   9  705.33   19.10
   2  -2  -9   26.80    1.40
   2  -2  -9   26.40    1.80
  -2   2   9   27.90    1.60
  -2   2   9   24.80    1.70
  -2   2   9   25.20    1.40
  -2   2   9   26.50    1.80
   1  -2  -9  178.98    5.90
   1  -2  -9  213.88    5.50
   1  -2  -9  188.58    5.40
  -1   2   9  201.28    5.60
  -1   2   9  198.68    5.50
  -1   2   9  203.18    6.00
   0  -2  -9   22.70    0.90
   0  -2  -9   22.10    0.80
   0  -2  -9   20.90    1.60
   0   2   9   22.70    1.00
   0   2   9   20.30    1.00
   0   2   9   20.00    1.10
   0   2   9   16.00    1.50
  -1  -2  -9  539.05   14.90
   1   2   9  544.45   14.10
   1   2   9  547.75   14.60
  -2  -2  -9  650.53   17.90
   2   2   9  659.33   17.30
   2   2   9  646.84   17.90
   2   2   9  642.74   16.90
   3   2   9    3.80    1.00
   3   2   9    3.60    1.80
   4   2   9   -0.70    2.20
   4   2   9    0.30    1.20
   5   2   9   14.70    2.20
   5   2   9   16.90    3.90
   6  -3  -9  115.09    6.10
  -6   3   9  117.59    5.60
  -6   3   9  116.59    6.80
   5  -3  -9   18.60    2.70
  -5   3   9   13.30    2.00
  -5   3   9   14.80    2.70
   4  -3  -9   78.09    3.90
   4  -3  -9   80.49    3.50
  -4   3   9   79.79    4.00
   3  -3  -9    1.90    1.20
   3  -3  -9    2.70    1.00
  -3   3   9    1.70    0.90
  -3   3   9    2.00    1.10
  -3   3   9    1.70    1.20
   2  -3  -9    0.10    0.60
   2  -3  -9    0.10    0.90
  -2   3   9    0.10    0.80
  -2   3   9    0.30    0.90
  -2   3   9    0.30    0.70
   1  -3  -9   38.00    1.60
   1  -3  -9   34.70    2.00
  -1   3   9   38.40    1.60
  -1   3   9   34.50    2.00
  -1   3   9   38.50    1.60
   0  -3  -9    6.90    0.70
   0  -3  -9    7.40    1.20
   0   3   9    7.70    0.80
   0   3   9    5.80    1.00
  -1  -3  -9   32.20    1.20
  -1  -3  -9   32.30    2.20
  -1  -3  -9   31.80    1.30
   1   3   9   34.30    2.20
   1   3   9   35.20    1.60
   1   3   9   28.80    2.00
  -2  -3  -9   32.00    1.20
  -2  -3  -9   37.20    2.90
  -2  -3  -9   36.00    1.50
   2   3   9   31.60    1.80
   2   3   9   32.90    2.20
   2   3   9   32.10    2.80
   3   3   9   22.60    2.70
   3   3   9   20.00    2.00
   4   3   9   30.80    2.90
   4   3   9   36.20    4.40
   6  -4  -9    3.00    3.10
  -6   4   9    2.40    2.30
  -6   4   9    0.40    2.80
   5  -4  -9   78.99    4.60
  -5   4   9   81.59    4.20
  -5   4   9   78.59    4.80
   4  -4  -9  271.47    8.10
   4  -4  -9  265.67    8.50
  -4   4   9  254.67    8.50
   3  -4  -9    5.30    1.20
   3  -4  -9    6.20    1.50
  -3   4   9    5.00    1.40
  -3   4   9    4.80    1.30
  -3   4   9    6.20    1.20
   2  -4  -9   63.49    3.00
   2  -4  -9   65.39    2.60
  -2   4   9   63.39    2.90
  -2   4   9   65.09    2.60
  -2   4   9   62.49    2.60
   1  -4  -9   80.69    2.80
   1  -4  -9   75.69    3.30
  -1   4   9   80.79    2.80
   0  -4  -9    1.40    0.60
   0  -4  -9    1.90    1.20
   0   4   9    2.20    0.80
   0   4   9    2.10    1.00
  -1  -4  -9   10.00    1.70
  -1  -4  -9   10.90    1.10
   1   4   9   10.30    1.40
   1   4   9   10.90    1.10
   1   4   9   10.20    1.70
  -2  -4  -9   28.10    3.00
  -2  -4  -9   27.40    1.50
   2   4   9   28.30    2.00
   2   4   9   27.80    3.00
   2   4   9   29.50    2.50
  -3  -4  -9  221.88    6.10
   3   4   9  236.58    8.30
   3   4   9  226.48    7.10
   4   4   9   56.69    3.90
   4   4   9   53.59    5.20
   5  -5  -9    2.40    2.10
  -5   5   9    1.90    2.30
   4  -5  -9   13.40    2.20
   4  -5  -9   14.00    1.90
  -4   5   9   10.50    2.10
   3  -5  -9   43.40    2.80
   3  -5  -9   43.10    2.50
  -3   5   9   43.50    2.70
   2  -5  -9  126.99    4.30
   2  -5  -9  134.19    4.80
  -2   5   9  129.09    4.40
  -2   5   9  126.79    4.80
   1  -5  -9  123.29    4.00
   1  -5  -9  126.99    4.60
  -1   5   9  110.99    4.00
  -1   5   9  129.09    4.70
   0  -5  -9    2.10    0.80
   0  -5  -9    1.60    1.30
   0   5   9    0.90    1.20
   0   5   9    1.20    0.90
  -1  -5  -9   98.79    4.30
  -1  -5  -9   86.89    3.10
   1   5   9   88.99    3.50
   1   5   9   93.39    4.00
   1   5   9   89.79    4.20
  -2  -5  -9   14.00    1.30
   2   5   9   14.70    2.10
   2   5   9   16.40    2.50
   2   5   9   13.00    1.70
  -3  -5  -9   22.70    1.80
   3   5   9   25.70    3.30
   3   5   9   25.10    2.40
   4   5   9    9.70    2.60
  -4   6   9   71.59    4.10
   3  -6  -9   45.70    3.30
   3  -6  -9   42.40    2.90
  -3   6   9   46.70    3.30
   2  -6  -9   76.29    3.70
   2  -6  -9   78.99    3.30
  -2   6   9   56.79    3.80
  -2   6   9   82.99    4.00
   1  -6  -9   51.69    2.50
   1  -6  -9   54.59    3.10
  -1   6   9   47.90    2.70
  -1   6   9   49.50    3.10
   0  -6  -9    0.30    1.50
   0  -6  -9    0.10    1.00
   0   6   9   -0.60    1.50
   0   6   9    0.10    1.60
   0   6   9    0.70    1.20
  -1  -6  -9   36.20    3.50
  -1  -6  -9   35.70    2.20
   1   6   9   40.30    3.20
   1   6   9   39.40    3.50
   1   6   9   39.80    2.80
  -2  -6  -9   15.40    1.50
   2   6   9   18.00    2.10
   2   6   9   15.80    2.70
  -3  -6  -9   11.00    1.50
   3   6   9   14.90    2.40
   3   6   9   12.40    3.10
  -4   7   9   48.40    4.00
   3  -7  -9   -0.80    1.50
  -3   7   9   -0.30    1.90
   2  -7  -9   22.20    2.10
  -2   7   9   16.30    2.30
   1  -7  -9  122.09    4.40
  -1   7   9  113.89    5.20
   0  -7  -9   67.69    3.20
   0  -7  -9   67.99    4.10
   0   7   9   69.69    3.60
   0   7   9   66.69    4.10
   0   7   9   76.69    4.00
  -1  -7  -9   18.10    1.80
  -1  -7  -9   24.90    3.10
   1   7   9   20.60    2.40
   1   7   9   19.30    3.00
   1   7   9   19.10    2.70
  -2  -7  -9  148.99    5.30
   2   7   9  156.38    6.20
   2   7   9  157.28    7.20
  -4   8   9   10.50    2.90
   3  -8  -9   64.79    4.10
  -3   8   9   61.49    4.60
   2  -8  -9  171.48    6.10
  -2   8   9  175.68    7.10
   1  -8  -9   16.20    2.10
   0  -8  -9   22.60    2.20
   0   8   9   25.60    3.00
  -1  -8  -9    6.50    1.80
   1   8   9    5.70    2.90
  -3   9   9   55.09    5.10
   2  -9  -9   65.49    4.40
  -2   9   9   61.39    4.70
   1  -9  -9    4.10    2.10
  -1   9   9    2.50    2.90
   0  -9  -9   -0.40    2.00
   0   9   9    0.70    3.10
   1   9 -10    7.90    2.90
   1   9 -10    7.60    2.10
  -1  -9  10    7.50    3.50
   0   9 -10    6.50    1.70
   0   9 -10    3.80    2.50
   0  -9  10    4.60    2.20
   0  -9  10    3.90    3.10
  -1   9 -10   12.50    3.00
  -1   9 -10   13.50    1.60
   1  -9  10   14.90    3.40
   1  -9  10    9.20    2.20
  -2   9 -10   59.19    4.80
  -2   9 -10   58.69    2.30
  -2   9 -10   58.89    4.40
   2  -9  10   56.39    4.90
   2  -9  10   60.79    4.00
  -3   9 -10   45.70    4.90
  -3   9 -10   51.69    5.00
   3  -9  10   48.00    3.80
   3  -9  10   47.60    5.00
   2   8 -10   -0.40    2.40
   2   8 -10   -0.40    1.90
  -2  -8  10    0.20    3.10
   1   8 -10    0.60    2.10
   1   8 -10    0.30    1.50
  -1  -8  10    0.30    2.50
   0   8 -10   80.49    4.70
   0   8 -10   76.39    3.30
   0  -8  10   69.99    4.70
   0  -8  10   84.09    4.00
  -1   8 -10   17.30    2.50
  -1   8 -10   18.10    2.80
  -1   8 -10   22.80    1.80
   1  -8  10   22.20    2.90
   1  -8  10   24.20    2.20
  -2   8 -10    0.00    2.10
  -2   8 -10    0.40    2.30
   2  -8  10    0.30    1.50
   2  -8  10    0.40    2.50
  -3   8 -10   42.50    4.70
  -3   8 -10   45.20    4.00
   3  -8  10   40.50    3.10
  -4   8 -10   15.90    3.80
   4  -8  10    8.20    2.10
   3   7 -10  177.28    6.90
  -3  -7  10  196.88    8.30
   2   7 -10    0.70    1.50
   2   7 -10   -0.30    2.20
  -2  -7  10    1.10    2.20
   1   7 -10    0.60    1.20
   1   7 -10   -0.30    1.80
  -1  -7  10    1.50    2.20
  -1  -7  10   -0.10    1.40
   0   7 -10    2.80    1.60
   0   7 -10    4.10    1.10
   0  -7  10    5.30    2.10
   0  -7  10    4.90    1.40
  -1   7 -10    3.80    0.80
  -1   7 -10    6.00    1.90
  -1   7 -10    3.20    1.60
   1  -7  10    3.40    1.90
   1  -7  10    5.40    1.30
  -2   7 -10   36.80    3.50
  -2   7 -10   26.60    3.00
   2  -7  10   30.00    3.50
   2  -7  10   34.00    2.30
  -3   7 -10  178.48    7.00
  -3   7 -10  169.78    6.50
   3  -7  10  171.88    5.60
  -4   7 -10   89.79    5.30
   4  -7  10   79.89    3.80
   4   6 -10    0.90    2.40
  -4  -6  10    1.20    3.40
   3   6 -10  328.37    9.90
  -3  -6  10  318.17   10.90
   2   6 -10   15.10    1.70
   2   6 -10   16.00    2.20
  -2  -6  10   15.50    1.90
  -2  -6  10   14.50    2.40
   1   6 -10    8.70    1.80
   1   6 -10    9.50    1.20
  -1  -6  10   10.40    1.50
  -1  -6  10    8.30    1.90
   0   6 -10   30.90    1.70
   0   6 -10   28.50    2.70
   0  -6  10   31.30    2.10
   0  -6  10   31.10    3.00
  -1   6 -10    9.40    1.90
  -1   6 -10    9.20    1.80
  -1   6 -10    7.30    0.60
   1  -6  10    6.80    1.90
   1  -6  10    5.10    1.10
  -2   6 -10  366.16   11.30
  -2   6 -10  371.26   10.90
   2  -6  10  375.66   10.20
  -3   6 -10   77.89    4.20
   3  -6  10   70.89    2.90
  -4   6 -10    7.40    2.60
   4  -6  10    7.70    1.40
  -5   6 -10   91.99    6.20
   5  -6  10  100.39    4.40
   4   5 -10    2.40    2.50
   4   5 -10    4.50    2.10
  -4  -5  10    2.60    2.80
   3   5 -10   47.70    3.50
   3   5 -10   51.79    3.00
   3   5 -10   48.90    3.60
  -3  -5  10   43.20    4.00
   2   5 -10  106.59    4.50
   2   5 -10   99.79    3.80
  -2  -5  10   97.89    3.90
  -2  -5  10   97.89    4.50
   1   5 -10  445.76   12.50
   1   5 -10  417.46   11.60
  -1  -5  10  430.66   11.80
  -1  -5  10  432.66   12.60
   0   5 -10   79.99    2.60
   0   5 -10   74.19    3.40
   0  -5  10   87.09    3.00
   0  -5  10   80.09    3.80
  -1   5 -10   15.40    1.90
  -1   5 -10   14.10    1.70
   1  -5  10   12.90    1.30
   1  -5  10   13.80    1.90
  -2   5 -10   54.29    3.00
  -2   5 -10   64.79    3.30
   2  -5  10   59.69    2.30
  -3   5 -10    2.10    1.70
   3  -5  10    1.90    0.80
  -4   5 -10   34.50    3.30
   4  -5  10   30.60    2.10
  -5   5 -10   79.89    5.60
   5  -5  10   80.69    3.70
   5   4 -10   29.30    3.90
  -5  -4  10   32.00    4.40
   4   4 -10    9.20    1.90
   4   4 -10   10.40    2.40
  -4  -4  10    9.60    2.70
   3   4 -10   18.20    2.10
   3   4 -10   18.40    2.20
   3   4 -10   21.40    2.10
  -3  -4  10   19.50    2.50
   2   4 -10   71.09    3.30
   2   4 -10   78.79    3.30
   2   4 -10   77.39    3.00
  -2  -4  10   75.39    3.10
  -2  -4  10   70.99    3.60
   1   4 -10  368.46    9.90
   1   4 -10  374.36   10.20
   1   4 -10  372.06   10.70
  -1  -4  10  360.76   10.90
  -1  -4  10  376.76   10.10
   0   4 -10    8.40    0.70
   0   4 -10    9.50    1.50
   0   4 -10    9.30    0.70
   0  -4  10    9.20    1.50
   0  -4  10    9.00    0.90
  -1   4 -10    1.10    1.00
  -1   4 -10    1.40    1.10
   1  -4  10    1.30    0.50
   1  -4  10    0.70    1.00
  -2   4 -10  224.98    6.80
  -2   4 -10  226.08    7.20
   2  -4  10  219.88    6.10
  -3   4 -10  380.86   11.50
   3  -4  10  384.56   10.20
  -4   4 -10  273.27    9.20
   4  -4  10  282.37    7.80
  -5   4 -10    0.20    2.50
   5  -4  10   -0.40    1.30
   5   3 -10   18.80    3.30
  -5  -3  10   12.70    3.10
   4   3 -10    2.50    1.80
   4   3 -10    3.60    1.70
  -4  -3  10    1.30    2.10
   3   3 -10   78.89    3.20
   3   3 -10   80.09    3.60
   3   3 -10   74.49    3.70
  -3  -3  10   73.19    3.90
  -3  -3  10   82.29    3.50
   2   3 -10   13.40    1.50
   2   3 -10   13.10    1.50
   2   3 -10   14.30    1.40
  -2  -3  10   18.10    2.00
  -2  -3  10   13.90    1.30
   1   3 -10   35.80    2.20
   1   3 -10   45.70    2.10
   1   3 -10   41.70    1.60
  -1  -3  10   41.90    2.40
  -1  -3  10   43.50    1.80
   0   3 -10  153.08    4.40
   0   3 -10  143.39    4.80
   0  -3  10  144.19    4.10
   0  -3  10  139.69    4.90
  -1   3 -10    0.50    0.70
  -1   3 -10    0.80    0.80
  -1   3 -10    0.50    1.00
   1  -3  10    0.70    0.40
   1  -3  10    0.00    1.00
   1  -3  10    0.60    0.40
  -2   3 -10  152.28    4.70
  -2   3 -10  158.48    5.30
  -2   3 -10  149.79    4.90
   2  -3  10  156.98    4.70
   2  -3  10  148.59    4.10
   2  -3  10  137.09    4.20
  -3   3 -10   33.90    2.50
   3  -3  10   34.10    1.50
  -4   3 -10   65.39    4.00
   4  -3  10   65.79    2.60
  -5   3 -10   16.40    3.00
   5  -3  10   16.10    1.70
   5   2 -10    0.30    2.40
  -5  -2  10    0.80    2.70
   4   2 -10   46.30    2.90
   4   2 -10   43.00    3.50
  -4  -2  10   40.90    3.40
   3   2 -10  496.85   13.30
   3   2 -10  494.25   13.50
   3   2 -10  474.75   13.80
  -3  -2  10  486.35   13.30
  -3  -2  10  480.15   14.00
   2   2 -10  377.36   10.20
   2   2 -10  363.06   10.60
   2   2 -10  377.36   10.70
  -2  -2  10  390.86   10.30
   1   2 -10   17.20    0.90
   1   2 -10   15.50    1.40
   1   2 -10   17.50    1.00
   1   2 -10   15.70    1.50
  -1  -2  10   14.60    1.60
  -1  -2  10   17.90    1.10
   0   2 -10    8.20    0.90
   0   2 -10    6.90    1.00
   0  -2  10    7.00    1.10
   0  -2  10    7.30    0.70
   0  -2  10    8.60    0.70
  -1   2 -10  130.69    4.20
  -1   2 -10  123.09    4.00
  -1   2 -10  128.39    4.30
   1  -2  10  127.59    4.30
  -2   2 -10   32.50    2.10
  -2   2 -10   34.10    1.90
  -2   2 -10   36.80    2.00
   2  -2  10   31.20    1.00
   2  -2  10   29.10    1.90
  -3   2 -10   46.30    2.80
   3  -2  10   52.29    1.80
   3  -2  10   49.40    2.80
  -4   2 -10  132.89    5.40
   4  -2  10  136.49    5.50
   4  -2  10  131.09    4.10
  -5   2 -10   58.69    4.60
   5  -2  10   57.99    3.00
   5   1 -10   58.89    4.50
  -5  -1  10   58.19    4.80
   4   1 -10   62.09    3.80
   4   1 -10   66.99    3.30
  -4  -1  10   64.99    3.80
   3   1 -10  144.79    5.00
   3   1 -10  149.49    4.70
   3   1 -10  147.09    5.30
  -3  -1  10  155.18    5.50
  -3  -1  10  147.19    4.80
   2   1 -10  104.19    3.70
   2   1 -10   97.69    3.10
   2   1 -10   95.59    3.60
  -2  -1  10  101.39    3.20
  -2  -1  10   93.29    3.80
   1   1 -10  275.47    8.20
   1   1 -10  289.57    8.10
   1   1 -10  292.87    7.50
   1   1 -10  286.67    7.50
  -1  -1  10  283.87    8.20
  -1  -1  10  288.37    7.70
   0   1 -10   54.29    2.20
   0   1 -10   57.79    2.40
   0  -1  10   52.39    1.60
   0  -1  10   50.89    1.60
   0  -1  10   56.29    2.30
  -1   1 -10    3.10    0.80
  -1   1 -10    3.60    0.90
  -1   1 -10    4.30    0.90
   1  -1  10    3.00    0.90
  -2   1 -10  128.49    4.00
  -2   1 -10  115.99    4.10
  -2   1 -10  126.99    4.20
   2  -1  10  114.29    4.20
   2  -1  10  116.39    3.90
  -3   1 -10  275.37    8.40
   3  -1  10  279.27    7.40
   3  -1  10  273.47    8.50
  -4   1 -10   18.80    2.40
   4  -1  10   15.90    1.60
   4  -1  10   13.20    2.40
   5  -1  10    6.70    2.70
   5  -1  10    7.30    1.50
   5   0 -10  144.69    6.30
  -5   0  10  135.19    6.10
   4   0 -10   35.30    2.80
   4   0 -10   34.00    2.50
  -4   0  10   30.70    2.80
   3   0 -10  143.19    5.10
   3   0 -10  140.19    4.80
   3   0 -10  156.18    4.60
  -3   0  10  143.49    4.60
  -3   0  10  147.79    5.30
  -3   0  10  140.79    4.80
   2   0 -10  400.06   10.80
   2   0 -10  412.16   11.30
   2   0 -10  393.86   11.40
  -2   0  10  423.36   11.30
  -2   0  10  413.76   11.50
  -2   0  10  405.76   10.90
   1   0 -10  511.45   12.80
   1   0 -10  483.45   13.40
   1   0 -10  502.75   13.40
   1   0 -10  493.45   12.70
  -1   0  10  479.25   13.40
  -1   0  10  495.95   13.40
  -1   0  10  495.95   12.90
   0   0 -10    6.90    1.00
   0   0 -10    6.80    0.90
   0   0  10    7.30    1.00
   0   0  10    7.60    0.60
   0   0  10    7.90    0.90
   0   0  10    8.10    0.60
  -1   0 -10  162.88    4.70
  -1   0 -10  157.98    4.80
  -1   0 -10  154.48    4.90
   1   0  10  145.59    4.80
   1   0  10  151.78    4.70
  -2   0 -10   29.60    1.80
  -2   0 -10   26.70    2.00
   2   0  10   27.10    1.70
   2   0  10   25.80    1.00
   2   0  10   22.60    1.00
   2   0  10   22.90    2.00
  -3   0 -10   11.70    1.60
   3   0  10   14.80    1.10
   3   0  10   10.30    1.70
   4   0  10  145.09    5.90
   4   0  10  146.89    4.60
   5   0  10   -0.20    1.40
   5   0  10    0.00    2.90
   6  -1 -10   87.29    6.10
  -6   1  10   82.29    5.70
   5  -1 -10   81.19    4.80
  -5   1  10   72.49    4.50
   4  -1 -10  623.24   17.90
   4  -1 -10  648.74   17.20
  -4   1  10  638.04   18.00
   3  -1 -10  714.63   20.10
   3  -1 -10  753.42   19.60
  -3   1  10  753.72   19.90
  -3   1  10  745.03   20.20
  -3   1  10  753.62   19.60
   2  -1 -10  399.06   10.80
   2  -1 -10  391.76   11.20
   2  -1 -10  408.06   11.40
  -2   1  10  407.26   11.30
  -2   1  10  410.36   11.20
  -2   1  10  411.16   10.80
   1  -1 -10  112.49    3.20
   1  -1 -10  117.99    3.20
   1  -1 -10  106.69    3.80
   1  -1 -10  104.69    3.80
  -1   1  10  111.89    3.80
  -1   1  10  114.69    3.60
  -1   1  10  110.39    3.30
   0  -1 -10   19.40    1.50
   0  -1 -10   21.10    1.60
   0   1  10   16.90    0.90
   0   1  10   19.20    1.20
   0   1  10   18.00    1.50
   0   1  10   17.70    0.90
  -1  -1 -10 1103.79   27.80
  -1  -1 -10 1076.49   28.30
   1   1  10 1078.09   27.70
   1   1  10 1075.19   27.40
   1   1  10 1083.29   28.10
   1   1  10 1063.89   27.40
  -2  -1 -10    7.60    1.40
  -2  -1 -10    5.90    1.10
   2   1  10    6.80    1.10
   2   1  10    5.90    1.30
   2   1  10    6.10    0.60
   3   1  10   40.80    1.90
   4   1  10  115.39    4.10
   4   1  10  125.79    5.80
   5   1  10   -0.60    3.10
   5   1  10    0.10    1.60
   6  -2 -10   36.10    4.30
  -6   2  10   20.30    3.80
   5  -2 -10    1.00    2.10
  -5   2  10    1.00    2.10
   4  -2 -10   13.30    2.00
   4  -2 -10   13.90    1.70
  -4   2  10   11.40    2.00
   3  -2 -10  281.17    7.90
   3  -2 -10  278.87    8.50
  -3   2  10  279.37    8.40
  -3   2  10  281.97    7.90
  -3   2  10  259.87    8.10
   2  -2 -10   10.90    1.10
   2  -2 -10   12.10    1.40
  -2   2  10    9.40    1.00
  -2   2  10   13.50    1.60
  -2   2  10   12.60    1.40
   1  -2 -10  109.39    3.20
   1  -2 -10  107.39    3.90
   1  -2 -10  101.29    3.80
  -1   2  10  112.29    3.50
  -1   2  10  110.89    3.30
  -1   2  10  110.79    3.90
   0  -2 -10   54.99    1.60
   0  -2 -10   52.79    2.50
   0  -2 -10   55.39    1.60
   0   2  10   54.89    1.90
   0   2  10   53.59    1.90
   0   2  10   50.19    2.30
  -1  -2 -10   30.40    2.00
   1   2  10   28.00    1.90
   1   2  10   26.10    1.30
  -2  -2 -10   14.80    1.80
   2   2  10   15.90    1.80
   2   2  10   20.80    2.10
   2   2  10   19.30    1.30
   3   2  10   51.59    3.40
   3   2  10   53.79    2.40
   4   2  10   55.89    4.60
   4   2  10   51.49    2.90
   5   2  10    1.30    1.80
   5   2  10    0.60    3.10
   6  -3 -10   39.30    4.40
  -6   3  10   35.00    4.00
   5  -3 -10   57.99    4.00
  -5   3  10   60.19    4.00
   4  -3 -10   37.50    2.70
   4  -3 -10   33.20    2.80
  -4   3  10   36.20    3.10
   3  -3 -10    4.80    1.30
   3  -3 -10    7.10    1.10
  -3   3  10    5.80    1.40
  -3   3  10    7.40    1.40
  -3   3  10    7.60    1.20
   2  -3 -10 1875.91   47.40
   2  -3 -10 1814.22   48.00
  -2   3  10 1851.21   47.50
  -2   3  10 1881.51   47.60
  -2   3  10 1856.01   47.90
   1  -3 -10  213.88    5.90
   1  -3 -10  211.98    6.50
  -1   3  10  210.68    6.50
  -1   3  10  209.58    6.00
   0  -3 -10    0.90    0.90
   0  -3 -10    1.90    0.50
   0   3  10    2.60    0.60
   0   3  10    1.80    1.00
  -1  -3 -10    9.80    0.70
  -1  -3 -10   10.20    0.70
  -1  -3 -10    9.50    1.60
   1   3  10    9.10    1.40
   1   3  10   10.90    1.00
  -2  -3 -10   -0.40    1.30
   2   3  10    0.20    1.10
   2   3  10    0.80    0.80
   2   3  10    1.30    1.40
   3   3  10  223.18    8.00
   3   3  10  222.18    6.70
   4   3  10   37.60    3.10
   4   3  10   38.90    4.10
   6  -4 -10   21.20    3.80
  -6   4  10   23.50    3.70
   5  -4 -10    6.40    2.30
  -5   4  10   10.30    2.40
   4  -4 -10   27.20    2.50
   4  -4 -10   25.60    2.90
  -4   4  10   26.80    2.90
   3  -4 -10    3.50    1.10
   3  -4 -10    2.20    1.40
  -3   4  10    1.80    1.30
  -3   4  10    2.60    1.20
  -3   4  10    0.90    1.30
   2  -4 -10   22.60    2.00
   2  -4 -10   22.50    1.70
  -2   4  10   19.90    1.60
  -2   4  10   20.70    1.90
   1  -4 -10    4.80    1.20
   1  -4 -10    6.40    0.90
  -1   4  10    5.60    0.90
  -1   4  10    4.00    1.10
   0  -4 -10   98.49    3.10
   0  -4 -10   98.29    4.00
   0   4  10   99.69    3.90
   0   4  10  102.69    3.40
  -1  -4 -10   70.69    3.60
  -1  -4 -10   76.59    2.50
   1   4  10   73.49    3.40
   1   4  10   78.79    2.90
   1   4  10   74.59    3.60
  -2  -4 -10    4.80    0.70
  -2  -4 -10    3.10    1.70
   2   4  10    3.60    1.50
   2   4  10    5.40    1.20
   2   4  10    5.60    1.80
   3   4  10   50.19    4.30
   3   4  10   43.30    2.90
   4   4  10    5.60    3.00
   4   4  10    5.80    2.00
   5  -5 -10   72.79    4.80
  -5   5  10   76.49    4.90
   4  -5 -10  107.39    4.50
   4  -5 -10  104.19    4.80
  -4   5  10  103.59    4.80
  -4   5  10  106.09    4.70
   3  -5 -10   14.50    2.00
   3  -5 -10   16.60    1.70
  -3   5  10   16.10    2.00
   2  -5 -10   -0.10    0.90
   2  -5 -10    0.70    1.30
  -2   5  10    0.40    1.00
  -2   5  10    0.80    1.30
   1  -5 -10    1.60    0.90
   1  -5 -10    2.00    1.30
  -1   5  10    1.00    0.90
  -1   5  10    0.30    1.20
   0  -5 -10   69.99    3.60
   0  -5 -10   72.49    2.70
   0   5  10   73.99    3.60
   0   5  10   70.49    3.00
  -1  -5 -10   28.10    1.70
  -1  -5 -10   27.40    3.00
   1   5  10   26.30    2.20
   1   5  10   30.90    3.00
   1   5  10   31.80    2.80
  -2  -5 -10    2.00    0.80
   2   5  10    0.70    2.10
   2   5  10    1.90    1.40
  -3  -5 -10   19.80    1.50
   3   5  10   15.70    2.90
   3   5  10   20.80    2.30
   4  -6 -10    4.90    1.80
  -4   6  10    9.40    2.20
   3  -6 -10    4.40    1.80
   3  -6 -10    8.30    1.60
  -3   6  10    5.00    1.90
   2  -6 -10   70.99    3.70
   2  -6 -10   72.69    3.20
  -2   6  10   73.09    3.30
  -2   6  10   67.39    3.70
   1  -6 -10    0.00    1.50
   1  -6 -10    0.20    1.00
  -1   6  10    0.00    1.20
  -1   6  10    0.80    1.40
   0  -6 -10    0.20    0.90
   0  -6 -10    1.10    1.60
   0   6  10    0.10    1.60
   0   6  10   -0.50    1.20
  -1  -6 -10   13.80    1.40
  -1  -6 -10   16.10    2.50
   1   6  10   12.80    2.10
   1   6  10   15.30    1.80
   1   6  10   18.10    2.60
  -2  -6 -10  195.68    6.00
   2   6  10  216.28    8.10
   2   6  10  204.78    6.90
  -3  -6 -10   36.10    2.20
   3   6  10   33.20    3.10
   3   6  10   35.70    4.40
  -4   7  10   63.09    4.40
   3  -7 -10  143.09    5.30
  -3   7  10  137.29    5.90
   2  -7 -10  147.29    5.20
  -2   7  10  143.79    6.00
   1  -7 -10    3.80    1.40
   1  -7 -10    2.90    1.90
  -1   7  10    4.70    1.70
  -1   7  10    5.30    1.90
   0  -7 -10    0.10    2.00
   0  -7 -10    0.50    1.20
   0   7  10    0.30    1.90
   0   7  10    0.50    2.10
   0   7  10    0.10    1.60
  -1  -7 -10   15.30    1.70
  -1  -7 -10   21.20    3.00
   1   7  10   17.20    2.30
   1   7  10   22.20    3.10
   1   7  10   16.00    2.70
  -2  -7 -10    0.60    1.50
   2   7  10    0.30    3.10
   2   7  10    1.10    2.10
  -4   8  10   66.59    5.20
   3  -8 -10   50.19    3.90
  -3   8  10   46.50    4.00
   2  -8 -10   13.00    2.10
  -2   8  10   15.30    2.80
   1  -8 -10   48.30    3.40
  -1   8  10   53.29    4.10
   0  -8 -10   19.10    2.10
   0   8  10   14.80    2.80
  -1  -8 -10    0.30    1.70
   1   8  10    2.00    2.90
   3  -9 -10   -0.80    2.50
  -3   9  10    1.70    3.10
   2  -9 -10   67.19    4.50
  -2   9  10   62.19    4.80
   1  -9 -10  162.28    6.30
  -1   9  10  157.28    7.50
   0   9  10    8.80    5.10
   1   9 -11   53.89    5.50
  -1  -9  11   53.29    5.80
   0   9 -11   34.90    2.80
   0   9 -11   34.50    4.00
   0  -9  11   29.40    3.90
   0  -9  11   31.80    2.90
  -1   9 -11   31.90    2.20
  -1   9 -11   27.30    3.30
   1  -9  11   25.40    2.70
   1  -9  11   30.60    3.80
  -2   9 -11    1.00    2.40
  -2   9 -11    0.50    2.90
   2  -9  11    0.20    1.80
   2  -9  11    0.20    2.80
  -3   9 -11   -0.30    3.20
   3  -9  11    1.10    3.60
   3  -9  11   -0.20    2.00
   2   8 -11   12.10    2.30
   2   8 -11   12.10    3.30
  -2  -8  11    9.60    3.70
   1   8 -11   19.50    3.10
   1   8 -11   15.30    1.90
  -1  -8  11   19.70    3.40
  -1  -8  11   16.80    2.40
   0   8 -11    1.00    2.00
   0   8 -11    0.30    1.10
   0  -8  11    0.90    1.60
   0  -8  11    0.70    2.20
  -1   8 -11    6.20    2.40
  -1   8 -11    4.00    2.00
  -1   8 -11    5.80    1.00
   1  -8  11    4.00    1.60
   1  -8  11    4.50    2.60
  -2   8 -11   10.20    2.50
  -2   8 -11    9.90    2.80
   2  -8  11    6.50    2.80
  -3   8 -11   29.20    3.90
   3  -8  11   26.50    2.30
   3  -8  11   23.10    3.70
   4  -8  11    0.70    2.20
   3   7 -11  133.69    5.70
  -3  -7  11  134.89    7.30
   2   7 -11    4.90    2.40
   2   7 -11    7.30    1.80
  -2  -7  11    5.70    2.80
   1   7 -11   22.10    2.80
   1   7 -11   20.50    2.10
  -1  -7  11   18.70    2.10
  -1  -7  11   20.40    3.00
   0   7 -11   43.80    3.50
   0   7 -11   37.40    2.10
   0  -7  11   38.00    3.70
   0  -7  11   44.60    2.80
  -1   7 -11  156.18    6.10
  -1   7 -11  147.39    5.70
  -1   7 -11  142.19    4.10
   1  -7  11  141.29    6.00
   1  -7  11  143.99    4.90
  -2   7 -11   67.49    4.10
  -2   7 -11   65.09    4.00
   2  -7  11   66.99    3.00
   2  -7  11   63.79    4.10
  -3   7 -11   60.49    4.60
   3  -7  11   60.89    3.10
  -4   7 -11   18.20    3.20
   4  -7  11   17.40    2.00
   3   6 -11   23.40    3.30
   3   6 -11   26.30    2.40
  -3  -6  11   24.00    3.50
   2   6 -11  227.28    7.00
   2   6 -11  243.48    8.10
  -2  -6  11  219.18    8.10
  -2  -6  11  227.98    7.40
   1   6 -11   12.50    1.30
   1   6 -11   13.00    2.20
  -1  -6  11   11.50    1.60
  -1  -6  11   12.00    2.40
   0   6 -11   21.60    1.40
   0   6 -11   20.20    2.30
   0  -6  11   23.90    2.00
   0  -6  11   22.70    2.60
  -1   6 -11    2.20    1.60
  -1   6 -11    3.30    1.60
   1  -6  11    2.80    1.70
   1  -6  11    3.50    1.00
  -2   6 -11   17.50    2.30
  -2   6 -11   20.40    2.30
   2  -6  11   17.50    1.70
   2  -6  11   16.90    2.30
  -3   6 -11    0.70    1.80
   3  -6  11    0.70    1.00
  -4   6 -11    5.00    2.40
   4  -6  11    6.00    1.40
  -5   6 -11    0.20    3.60
   4   5 -11    0.00    2.00
   4   5 -11    0.30    2.60
  -4  -5  11    0.70    3.00
   3   5 -11    0.90    1.90
   3   5 -11    0.80    1.40
  -3  -5  11    1.80    2.10
   2   5 -11  297.97    9.60
   2   5 -11  308.27    8.90
  -2  -5  11  320.37   10.10
  -2  -5  11  316.77    9.10
   1   5 -11   99.59    4.40
   1   5 -11  101.59    3.40
  -1  -5  11  101.59    4.60
  -1  -5  11  104.19    3.70
   0   5 -11    2.70    1.30
   0   5 -11    3.50    0.60
   0  -5  11    4.20    1.60
   0  -5  11    3.70    0.90
  -1   5 -11   83.09    4.00
  -1   5 -11   82.59    3.70
   1  -5  11   83.69    4.00
  -2   5 -11  231.28    7.60
  -2   5 -11  222.68    7.30
   2  -5  11  229.18    6.40
  -3   5 -11  523.05   15.20
   3  -5  11  514.05   13.70
  -4   5 -11    2.10    2.00
   4  -5  11    3.10    1.20
  -5   5 -11   13.90    3.40
   5  -5  11    9.90    1.80
   4   4 -11    3.70    2.30
   4   4 -11    4.80    1.90
  -4  -4  11    3.70    2.60
   3   4 -11    9.30    2.00
   3   4 -11   13.50    2.10
   3   4 -11    7.10    1.50
  -3  -4  11   14.40    2.50
   2   4 -11    0.80    1.20
   2   4 -11    0.60    1.40
   2   4 -11    0.90    0.90
  -2  -4  11    0.90    1.40
  -2  -4  11    0.30    1.00
   1   4 -11   78.69    3.20
   1   4 -11   87.29    3.70
   1   4 -11   80.09    2.70
  -1  -4  11   76.69    3.60
  -1  -4  11   85.89    3.00
   0   4 -11  497.55   14.20
   0   4 -11  507.45   13.00
   0  -4  11  519.25   14.40
   0  -4  11  521.35   13.50
  -1   4 -11   33.00    2.30
  -1   4 -11   28.20    2.20
   1  -4  11   30.10    1.40
   1  -4  11   27.00    2.20
  -2   4 -11  135.39    4.80
  -2   4 -11  139.39    5.20
   2  -4  11  139.29    4.00
  -3   4 -11    5.10    1.80
   3  -4  11    6.20    0.80
  -4   4 -11   45.40    3.80
   4  -4  11   41.00    2.10
  -5   4 -11   15.80    3.20
   5  -4  11   20.80    1.90
   5   3 -11    0.90    2.50
  -5  -3  11    5.10    3.00
   4   3 -11   64.09    4.10
   4   3 -11   61.49    3.50
  -4  -3  11   63.49    4.50
   3   3 -11  100.79    4.30
   3   3 -11   96.99    4.20
   3   3 -11  103.79    3.80
  -3  -3  11   99.99    4.00
  -3  -3  11   99.39    4.80
   2   3 -11    2.00    0.80
   2   3 -11    2.90    1.20
   2   3 -11    2.20    1.10
  -2  -3  11    1.60    1.30
  -2  -3  11    3.20    1.00
   1   3 -11   79.79    3.10
   1   3 -11   79.99    2.50
   1   3 -11   78.59    3.30
  -1  -3  11   80.49    2.80
  -1  -3  11   81.89    3.60
   0   3 -11  827.12   21.90
   0   3 -11  852.31   21.50
   0  -3  11  797.32   22.00
   0  -3  11  814.22   21.20
  -1   3 -11    2.10    1.00
  -1   3 -11    2.30    1.10
  -1   3 -11    1.00    0.80
   1  -3  11    1.00    0.40
   1  -3  11    1.10    1.10
   1  -3  11    1.50    0.50
  -2   3 -11   27.90    1.90
  -2   3 -11   29.20    2.40
  -2   3 -11   32.50    2.10
   2  -3  11   28.90    1.10
  -3   3 -11  131.79    5.20
   3  -3  11  134.29    3.80
  -4   3 -11  195.78    7.30
   4  -3  11  200.68    5.80
  -5   3 -11  117.99    6.20
   5  -3  11  117.79    4.30
   5   2 -11   19.20    3.10
   5   2 -11   27.60    3.50
  -5  -2  11   19.40    3.50
   4   2 -11   26.10    2.90
   4   2 -11   32.10    2.70
  -4  -2  11   33.30    3.30
   3   2 -11  102.79    4.50
   3   2 -11  113.79    3.90
   3   2 -11  116.09    4.40
  -3  -2  11  111.69    4.80
  -3  -2  11  107.19    4.00
   2   2 -11    0.30    1.10
   2   2 -11    1.40    0.70
   2   2 -11    0.10    1.00
  -2  -2  11    0.30    1.10
  -2  -2  11    0.60    0.80
   1   2 -11   65.29    2.90
   1   2 -11   70.79    2.80
   1   2 -11   73.09    2.20
   1   2 -11   67.89    2.10
  -1  -2  11   66.59    2.30
  -1  -2  11   69.39    3.10
   0   2 -11  143.09    4.30
   0   2 -11  136.29    4.60
   0  -2  11  134.59    3.80
   0  -2  11  138.29    3.80
   0  -2  11  131.29    4.60
  -1   2 -11   33.80    2.00
  -1   2 -11   35.80    1.80
  -1   2 -11   32.60    2.00
   1  -2  11   32.40    2.10
  -2   2 -11   81.19    3.40
  -2   2 -11   83.99    3.20
  -2   2 -11   82.29    3.30
   2  -2  11   80.69    3.20
  -3   2 -11   34.40    2.50
   3  -2  11   37.70    1.40
   3  -2  11   35.20    2.70
  -4   2 -11    3.00    1.90
   4  -2  11    1.50    0.90
   4  -2  11    3.60    2.10
  -5   2 -11  110.29    5.80
   5  -2  11  106.59    4.10
   5   1 -11   -0.20    2.30
   5   1 -11    0.20    1.90
  -5  -1  11   -1.10    2.60
   4   1 -11   55.09    3.50
   4   1 -11   60.89    3.10
  -4  -1  11   57.79    3.70
   3   1 -11   27.20    2.20
   3   1 -11   29.80    2.40
   3   1 -11   32.20    1.90
  -3  -1  11   30.30    2.10
  -3  -1  11   32.50    2.70
   2   1 -11   90.69    3.50
   2   1 -11   97.19    3.70
   2   1 -11   96.29    3.10
  -2  -1  11   97.19    3.20
  -2  -1  11   88.19    3.70
   1   1 -11   71.69    2.10
   1   1 -11   66.19    2.00
   1   1 -11   65.39    2.80
   1   1 -11   68.99    2.80
  -1  -1  11   67.99    2.30
  -1  -1  11   67.89    2.80
   0   1 -11    9.20    1.20
   0   1 -11    7.50    1.00
   0  -1  11    6.60    1.10
   0  -1  11    7.50    0.70
   0  -1  11    7.30    0.60
  -1   1 -11  277.87    8.00
  -1   1 -11  281.27    8.00
  -1   1 -11  280.47    8.00
   1  -1  11  272.57    8.00
  -2   1 -11  102.09    3.80
  -2   1 -11   96.79    3.70
  -2   1 -11  103.89    3.60
   2  -1  11  102.29    3.90
   2  -1  11   96.69    3.50
  -3   1 -11    8.60    1.60
   3  -1  11   10.20    1.00
   3  -1  11    7.90    1.60
  -4   1 -11   46.50    3.50
   4  -1  11   52.19    2.30
   4  -1  11   50.69    3.90
   5  -1  11   44.80    2.90
   5  -1  11   47.00    4.80
   5   0 -11    6.30    2.50
   5   0 -11    5.70    2.00
  -5   0  11    5.00    2.40
   4   0 -11  713.43   19.50
   4   0 -11  710.43   18.70
  -4   0  11  651.53   19.40
   3   0 -11  434.36   12.10
   3   0 -11  435.46   11.80
   3   0 -11  424.46   12.40
  -3   0  11  426.56   12.10
  -3   0  11  431.66   12.40
  -3   0  11  436.66   11.80
   2   0 -11   74.79    2.70
   2   0 -11   80.89    3.40
   2   0 -11   78.89    3.20
  -2   0  11   82.89    2.80
  -2   0  11   81.69    3.40
  -2   0  11   85.69    3.20
   1   0 -11   25.60    1.00
   1   0 -11   21.80    1.60
   1   0 -11   24.60    1.00
   1   0 -11   25.90    1.80
  -1   0  11   19.80    1.60
  -1   0  11   23.60    1.60
  -1   0  11   24.80    1.20
   0   0 -11  320.07    9.20
   0   0 -11  335.77    9.20
   0   0  11  326.87    8.90
   0   0  11  334.87    8.40
   0   0  11  314.87    8.40
   0   0  11  307.07    9.10
  -1   0 -11   79.49    2.80
  -1   0 -11   75.39    3.10
  -1   0 -11   77.49    2.90
   1   0  11   77.39    2.80
   1   0  11   72.19    2.90
   1   0  11   75.79    2.10
  -2   0 -11    0.20    0.90
  -2   0 -11    0.40    1.00
   2   0  11    1.60    0.40
   2   0  11    0.40    1.00
   2   0  11    0.30    0.90
   2   0  11    0.40    0.40
  -3   0 -11  148.79    5.20
   3   0  11  145.39    5.60
   3   0  11  149.79    4.30
   4   0  11  121.39    4.00
   4   0  11  119.39    5.40
   5   0  11   33.40    4.20
   5   0  11   31.20    2.80
   5  -1 -11    7.20    2.00
   5  -1 -11    5.20    2.20
  -5   1  11    8.90    2.70
   4  -1 -11  116.79    4.40
   4  -1 -11  124.19    5.20
  -4   1  11  122.59    5.20
   3  -1 -11  102.19    4.20
   3  -1 -11  106.29    3.70
  -3   1  11  110.69    3.70
  -3   1  11  103.99    4.30
  -3   1  11  108.69    4.00
   2  -1 -11  176.28    5.20
   2  -1 -11  176.98    5.70
   2  -1 -11  187.28    5.80
  -2   1  11  182.68    5.30
  -2   1  11  176.98    5.70
  -2   1  11  182.18    5.70
   1  -1 -11  112.39    4.00
   1  -1 -11  105.69    4.00
   1  -1 -11  126.69    3.30
   1  -1 -11  115.29    3.30
  -1   1  11  119.09    3.90
  -1   1  11  110.39    4.00
  -1   1  11  116.09    3.50
   0  -1 -11    6.20    1.10
   0  -1 -11    7.50    1.20
   0   1  11    6.20    1.10
   0   1  11    6.60    0.60
   0   1  11    7.10    0.60
   0   1  11    7.00    0.90
  -1  -1 -11  121.39    3.80
  -1  -1 -11  123.89    4.40
   1   1  11  118.09    3.40
   1   1  11  124.09    3.80
   1   1  11  117.19    4.10
  -2  -1 -11   39.90    2.70
   2   1  11   41.80    2.30
   2   1  11   44.00    2.80
   2   1  11   42.60    1.60
   3   1  11   74.09    4.00
   3   1  11   73.09    2.70
   4   1  11   41.70    4.10
   4   1  11   37.50    2.40
   5   1  11    6.10    1.80
   5   1  11    6.80    3.40
   6  -2 -11    8.10    3.50
  -6   2  11    5.30    3.80
   5  -2 -11   17.10    2.80
   5  -2 -11   13.00    2.20
  -5   2  11   12.40    2.50
   4  -2 -11    7.90    2.00
   4  -2 -11    5.70    1.40
  -4   2  11    4.10    1.90
   3  -2 -11  746.83   19.70
   3  -2 -11  746.93   20.40
  -3   2  11  757.82   20.30
  -3   2  11  753.72   20.10
  -3   2  11  738.13   19.80
   2  -2 -11 1605.14   41.20
   2  -2 -11 1573.24   41.90
  -2   2  11 1640.34   41.60
  -2   2  11 1607.34   41.80
  -2   2  11 1634.34   41.30
   1  -2 -11  189.08    6.10
   1  -2 -11  192.38    5.30
  -1   2  11  196.08    6.00
  -1   2  11  191.08    5.50
  -1   2  11  198.78    5.60
   0  -2 -11   97.39    3.80
   0   2  11  108.59    3.80
   0   2  11  103.69    3.10
  -1  -2 -11    8.00    1.50
   1   2  11    5.70    1.20
   1   2  11    7.70    0.70
  -2  -2 -11  106.19    4.60
   2   2  11  112.99    3.50
   2   2  11  112.49    4.60
   2   2  11  108.29    4.10
   3   2  11   14.70    1.30
   3   2  11    9.30    2.30
   4   2  11    1.20    2.50
   4   2  11    1.90    1.40
   6  -3 -11   55.49    5.70
  -6   3  11   53.59    5.60
   5  -3 -11   13.10    2.50
  -5   3  11   15.80    2.80
   4  -3 -11   39.20    3.30
   4  -3 -11   38.30    2.60
  -4   3  11   38.20    3.00
   3  -3 -11   67.99    2.80
   3  -3 -11   58.19    3.10
  -3   3  11   64.09    2.80
  -3   3  11   64.89    3.20
  -3   3  11   57.79    3.00
   2  -3 -11  277.17    8.30
   2  -3 -11  264.67    7.60
  -2   3  11  264.37    7.70
  -2   3  11  281.17    7.90
  -2   3  11  272.87    8.20
   1  -3 -11   35.60    2.40
   1  -3 -11   35.60    1.60
  -1   3  11   40.20    2.30
  -1   3  11   37.60    1.70
   0  -3 -11  311.87    8.10
   0  -3 -11  309.27    9.10
   0   3  11  294.77    8.90
   0   3  11  309.47    8.40
  -1  -3 -11  100.59    4.00
   1   3  11   96.19    3.80
   1   3  11   95.39    3.20
  -2  -3 -11  178.38    6.50
   2   3  11  176.08    5.80
   2   3  11  176.38    6.40
   2   3  11  166.38    5.20
   3   3  11   94.99    3.60
   3   3  11   90.49    4.80
   4   3  11    6.10    1.80
   4   3  11    7.40    2.90
   5  -4 -11  132.69    6.20
  -5   4  11  128.49    6.10
   4  -4 -11   21.30    2.60
   4  -4 -11   19.70    2.00
  -4   4  11   19.70    2.50
  -4   4  11   18.20    2.40
   3  -4 -11   26.20    2.60
   3  -4 -11   25.70    2.00
  -3   4  11   24.60    2.20
  -3   4  11   28.00    2.30
  -3   4  11   24.80    2.30
   2  -4 -11   12.40    1.70
   2  -4 -11   14.30    1.30
  -2   4  11   10.00    1.50
  -2   4  11   10.70    1.30
   1  -4 -11  510.05   13.60
   1  -4 -11  527.05   14.50
  -1   4  11  505.95   14.40
  -1   4  11  520.95   13.80
   0  -4 -11  189.08    6.40
   0  -4 -11  192.58    5.40
   0   4  11  206.18    6.50
   0   4  11  194.28    5.80
  -1  -4 -11   41.50    3.10
  -1  -4 -11   38.30    1.50
   1   4  11   41.40    2.10
   1   4  11   40.00    2.70
   1   4  11   40.70    3.10
  -2  -4 -11   24.70    2.90
   2   4  11   25.00    2.70
   2   4  11   28.30    2.20
   2   4  11   24.00    2.80
   3   4  11    8.80    1.60
   3   4  11   11.30    2.90
   4   4  11   30.20    2.80
   4   4  11   28.20    4.20
   5  -5 -11   20.70    3.10
  -5   5  11   12.40    3.00
   4  -5 -11    2.20    1.90
   4  -5 -11    2.80    1.60
  -4   5  11    2.80    1.70
   3  -5 -11  297.27    8.70
   3  -5 -11  293.57    9.30
  -3   5  11  304.47    9.40
   2  -5 -11   42.70    2.90
   2  -5 -11   45.60    2.40
  -2   5  11   40.60    2.80
  -2   5  11   42.40    2.50
   1  -5 -11   38.80    2.80
   1  -5 -11   33.20    1.90
  -1   5  11   34.40    2.80
  -1   5  11   31.80    2.10
   0  -5 -11  124.99    5.10
   0  -5 -11  130.59    4.00
   0   5  11  131.49    4.50
   0   5  11  134.59    5.00
  -1  -5 -11    7.80    2.10
  -1  -5 -11   11.70    1.10
   1   5  11   11.00    2.20
   1   5  11   11.10    1.90
   1   5  11   12.70    1.50
  -2  -5 -11   12.30    1.30
   2   5  11   14.10    2.70
   2   5  11   12.00    1.70
   3   5  11   29.50    2.60
   3   5  11   31.20    3.90
   4  -6 -11   15.70    2.20
   4  -6 -11   15.40    2.90
  -4   6  11   23.40    2.80
   3  -6 -11   90.79    4.40
   3  -6 -11   91.99    3.90
  -3   6  11   89.19    4.30
   2  -6 -11   17.40    2.30
   2  -6 -11   17.30    1.70
  -2   6  11   18.70    2.40
  -2   6  11   15.30    1.80
   1  -6 -11   40.50    2.40
   1  -6 -11   40.30    3.20
  -1   6  11   41.50    2.70
  -1   6  11   40.00    3.00
   0  -6 -11  110.69    5.00
   0  -6 -11  104.19    3.70
   0   6  11  109.29    4.20
   0   6  11  112.49    5.00
  -1  -6 -11   36.80    2.20
  -1  -6 -11   31.40    3.70
   1   6  11   33.80    3.70
   1   6  11   38.00    3.50
   1   6  11   39.90    2.90
  -2  -6 -11    2.10    1.10
   2   6  11    3.80    1.90
   2   6  11    2.30    2.40
   3   6  11    0.30    2.40
   3   6  11    1.50    3.00
   4  -7 -11    1.30    2.00
  -4   7  11   -0.20    2.40
   3  -7 -11    3.70    1.70
  -3   7  11    3.50    2.20
   2  -7 -11    1.20    1.40
  -2   7  11    0.80    2.00
   1  -7 -11   30.30    3.40
   1  -7 -11   33.50    2.60
  -1   7  11   36.40    3.30
  -1   7  11   36.30    3.10
   0  -7 -11    5.00    2.40
   0  -7 -11    7.30    1.40
   0   7  11    8.30    2.40
   0   7  11    4.10    1.80
   0   7  11    7.00    2.40
  -1  -7 -11    1.50    1.30
  -1  -7 -11    0.20    2.60
   1   7  11    0.90    1.90
   1   7  11    0.80    2.10
   1   7  11    2.60    2.70
  -2  -7 -11    8.90    1.60
   2   7  11   10.10    3.60
   2   7  11    7.60    2.40
  -4   8  11    1.10    2.80
   3  -8 -11   70.49    4.20
  -3   8  11   73.19    5.10
   2  -8 -11   21.40    2.40
  -2   8  11   18.90    2.90
   1  -8 -11   13.20    2.00
  -1   8  11   15.10    2.80
   0  -8 -11   17.20    2.10
   0   8  11   12.40    2.80
  -1  -8 -11   21.80    2.40
   1   8  11   25.40    3.80
   2  -9 -11   17.90    2.70
   1  -9 -11    1.20    2.20
   0   9 -12   14.10    1.70
   0   9 -12   12.10    3.00
   0  -9  12   13.00    3.30
   0  -9  12   13.50    2.50
  -1   9 -12    4.50    2.90
  -1   9 -12    7.00    1.10
   1  -9  12    6.00    2.30
   1  -9  12    5.40    3.40
  -2   9 -12   39.80    4.70
  -2   9 -12   36.10    4.50
   2  -9  12   36.80    3.70
   2  -9  12   37.80    4.70
   2   8 -12    1.40    3.20
   2   8 -12    0.80    2.10
  -2  -8  12   -0.30    3.40
   1   8 -12   29.80    2.80
   1   8 -12   26.70    3.30
  -1  -8  12   27.20    2.70
  -1  -8  12   29.90    3.80
   0   8 -12  144.59    6.10
   0   8 -12  130.29    4.40
   0  -8  12  134.19    5.30
   0  -8  12  136.99    6.20
  -1   8 -12   39.10    1.50
  -1   8 -12   33.70    4.00
   1  -8  12   41.20    4.50
   1  -8  12   39.10    3.10
  -2   8 -12   14.70    2.80
  -2   8 -12   12.00    2.50
   2  -8  12   13.30    3.00
  -3   8 -12    2.90    2.80
   3  -8  12    2.50    2.90
   3  -8  12    3.10    1.70
   3   7 -12    1.00    2.10
  -3  -7  12    0.80    3.50
   2   7 -12   21.60    3.20
   2   7 -12   17.00    2.00
  -2  -7  12   19.40    3.50
   1   7 -12   13.60    1.60
   1   7 -12   11.60    2.60
  -1  -7  12   13.20    1.90
  -1  -7  12   14.70    2.80
   0   7 -12   75.59    4.30
   0   7 -12   66.79    2.60
   0  -7  12   70.39    4.20
   0  -7  12   71.69    3.40
  -1   7 -12    2.20    2.00
  -1   7 -12    3.20    2.20
   1  -7  12    1.60    1.20
   1  -7  12    3.50    2.30
  -2   7 -12    0.80    1.90
  -2   7 -12   -0.20    1.90
   2  -7  12    0.90    2.10
   2  -7  12    0.80    1.20
  -3   7 -12    5.80    2.70
   3  -7  12    6.40    1.40
  -4   7 -12   13.40    3.20
   4  -7  12   11.00    1.90
   3   6 -12   70.49    4.80
   3   6 -12   72.39    3.90
  -3  -6  12   72.69    5.00
   2   6 -12  222.68    6.80
   2   6 -12  225.98    7.80
  -2  -6  12  218.98    7.20
  -2  -6  12  201.38    8.10
   1   6 -12    1.60    1.00
   1   6 -12    0.60    1.80
  -1  -6  12    0.40    1.80
  -1  -6  12    0.90    1.20
   0   6 -12   17.20    1.30
   0   6 -12   16.10    2.10
   0  -6  12   19.10    1.70
   0  -6  12   21.00    2.60
  -1   6 -12   54.99    3.50
  -1   6 -12   55.59    3.50
   1  -6  12   52.89    2.50
   1  -6  12   57.29    3.70
  -2   6 -12  187.88    6.70
  -2   6 -12  197.18    7.20
   2  -6  12  189.78    5.70
   2  -6  12  187.28    7.10
  -3   6 -12    4.40    2.40
   3  -6  12    4.60    1.10
  -4   6 -12   22.20    3.20
   4  -6  12   26.00    2.40
   4   5 -12    5.90    2.20
  -4  -5  12    8.40    3.40
   3   5 -12    6.80    2.10
   3   5 -12    6.20    1.60
  -3  -5  12    5.30    2.40
   2   5 -12  263.47    7.90
   2   5 -12  281.57    8.90
  -2  -5  12  269.07    9.10
  -2  -5  12  277.27    8.20
   1   5 -12   20.70    1.60
   1   5 -12   25.50    2.40
  -1  -5  12   23.50    2.70
  -1  -5  12   23.20    2.00
   0   5 -12   52.79    1.70
   0   5 -12   51.49    3.00
   0  -5  12   54.49    2.40
   0  -5  12   53.39    3.40
  -1   5 -12   57.09    3.30
  -1   5 -12   56.89    3.20
   1  -5  12   55.99    2.30
   1  -5  12   51.19    3.20
  -2   5 -12  149.59    5.90
  -2   5 -12  147.39    5.50
   2  -5  12  154.28    4.50
  -3   5 -12    0.10    1.60
   3  -5  12   -0.20    0.80
  -4   5 -12    5.80    2.40
   4  -5  12    3.50    1.20
  -5   5 -12   10.10    3.30
   5  -5  12   14.60    1.90
   4   4 -12    0.30    1.70
   4   4 -12    0.30    2.40
  -4  -4  12    0.70    2.40
   3   4 -12    2.90    1.30
   3   4 -12    4.00    1.80
   3   4 -12    5.00    2.00
  -3  -4  12    4.90    1.60
  -3  -4  12    5.30    2.20
   2   4 -12    6.80    1.10
   2   4 -12    7.40    1.60
   2   4 -12    8.50    1.70
  -2  -4  12    9.00    1.90
  -2  -4  12   10.30    1.40
   1   4 -12  674.93   18.80
   1   4 -12  693.33   17.80
   1   4 -12  701.53   18.30
  -1  -4  12  686.33   19.00
  -1  -4  12  667.33   18.10
   0   4 -12  386.96   11.20
   0  -4  12  384.16   11.40
   0  -4  12  390.86   10.40
  -1   4 -12   23.70    2.20
  -1   4 -12   23.50    2.20
   1  -4  12   23.50    2.30
  -2   4 -12   24.10    2.20
  -2   4 -12   22.30    2.30
   2  -4  12   19.30    1.20
  -3   4 -12    0.90    1.50
   3  -4  12    0.50    0.70
  -4   4 -12  128.89    5.70
   4  -4  12  133.69    4.20
  -5   4 -12    0.90    2.80
   5  -4  12    1.10    1.40
   5   3 -12   -0.70    2.30
   5   3 -12   -0.80    2.90
  -5  -3  12    1.10    2.90
   4   3 -12   13.10    2.50
   4   3 -12   16.60    2.00
  -4  -3  12   14.30    2.70
   3   3 -12    4.50    1.20
   3   3 -12    7.60    1.80
   3   3 -12    2.90    1.70
  -3  -3  12    2.30    1.40
  -3  -3  12    3.90    1.80
   2   3 -12    5.80    1.30
   2   3 -12    5.20    0.90
   2   3 -12    6.80    1.50
  -2  -3  12    7.10    1.70
  -2  -3  12    5.90    1.20
   1   3 -12   17.00    1.00
   1   3 -12   17.80    1.80
   1   3 -12   15.80    1.70
  -1  -3  12   17.30    2.00
  -1  -3  12   15.50    1.30
   0   3 -12  329.07    9.20
   0   3 -12  331.97    9.60
   0  -3  12  331.07    8.80
   0  -3  12  325.67    9.70
  -1   3 -12    1.00    0.90
  -1   3 -12    0.80    1.10
  -1   3 -12    1.40    1.10
   1  -3  12    0.60    0.40
   1  -3  12    1.30    1.10
  -2   3 -12  265.17    8.20
  -2   3 -12  262.27    7.80
   2  -3  12  252.47    6.80
  -3   3 -12   21.30    2.60
   3  -3  12   18.70    1.20
  -4   3 -12   72.59    4.40
   4  -3  12   71.19    2.70
  -5   3 -12   62.79    5.10
   5  -3  12   68.59    3.20
   5   2 -12    1.10    2.40
   5   2 -12    0.70    2.10
  -5  -2  12    0.00    3.00
   4   2 -12   26.90    3.30
   4   2 -12   26.00    2.60
  -4  -2  12   20.60    2.70
   3   2 -12   23.80    1.90
   3   2 -12   26.40    2.50
   3   2 -12   23.60    2.60
  -3  -2  12   22.00    2.10
  -3  -2  12   23.50    2.60
   2   2 -12   16.20    1.30
   2   2 -12   17.70    2.00
   2   2 -12   15.90    1.70
  -2  -2  12   14.80    1.50
  -2  -2  12   15.20    1.90
   1   2 -12    3.20    1.10
   1   2 -12    3.50    0.50
   1   2 -12    3.50    0.50
   1   2 -12    1.90    0.90
  -1  -2  12    2.40    0.70
  -1  -2  12    2.30    1.10
   0   2 -12   26.60    1.70
   0   2 -12   25.60    1.80
   0  -2  12   22.60    2.00
   0  -2  12   22.60    1.10
  -1   2 -12 1228.28   31.40
  -1   2 -12 1197.08   31.00
  -1   2 -12 1203.98   31.20
   1  -2  12 1151.68   31.30
  -2   2 -12  186.98    5.80
  -2   2 -12  188.38    5.80
  -2   2 -12  179.68    6.00
   2  -2  12  175.98    5.80
  -3   2 -12   26.50    2.60
   3  -2  12   23.70    1.20
   3  -2  12   21.30    2.50
  -4   2 -12   89.99    4.60
   4  -2  12   94.99    3.20
   4  -2  12   88.49    6.50
   5  -2  12   12.80    1.70
   5   1 -12   33.20    2.90
   5   1 -12   24.10    3.20
  -5  -1  12   29.30    3.80
   4   1 -12  146.99    5.10
   4   1 -12  138.49    5.80
  -4  -1  12  140.49    5.80
   3   1 -12   66.49    3.20
   3   1 -12   65.69    2.70
   3   1 -12   64.69    3.40
  -3  -1  12   59.69    3.40
  -3  -1  12   60.39    2.80
   2   1 -12   32.50    2.30
   2   1 -12   28.20    1.50
   2   1 -12   28.50    2.00
  -2  -1  12   30.00    1.70
  -2  -1  12   26.80    2.20
   1   1 -12  169.78    4.60
   1   1 -12  167.48    5.60
   1   1 -12  171.98    5.50
   1   1 -12  181.78    4.70
  -1  -1  12  176.68    5.60
  -1  -1  12  176.68    5.00
   0   1 -12    0.40    0.90
   0   1 -12    0.40    0.80
   0  -1  12    0.50    0.40
   0  -1  12    0.20    0.40
   0  -1  12    0.30    0.80
  -1   1 -12    3.50    1.10
  -1   1 -12    2.40    1.00
  -1   1 -12    1.60    1.00
   1  -1  12    2.00    1.00
  -2   1 -12   99.89    3.80
  -2   1 -12   99.99    3.70
  -2   1 -12   93.89    3.80
   2  -1  12   94.09    3.60
   2  -1  12   99.79    3.90
  -3   1 -12   91.59    4.00
   3  -1  12   93.19    2.80
   3  -1  12   92.29    4.20
   4  -1  12    5.00    2.20
   4  -1  12    4.40    1.00
   5  -1  12   18.80    3.70
   5  -1  12   17.30    1.90
   5   0 -12    0.20    1.80
   5   0 -12    0.40    2.10
  -5   0  12    2.30    2.40
   4   0 -12   65.19    4.00
   4   0 -12   65.79    3.20
  -4   0  12   66.99    3.90
   3   0 -12    6.20    1.30
   3   0 -12    7.00    1.10
   3   0 -12    5.80    1.40
  -3   0  12    7.10    1.40
  -3   0  12    7.40    1.20
  -3   0  12    5.70    1.60
   2   0 -12   52.69    2.70
   2   0 -12   55.39    2.00
   2   0 -12   51.69    2.80
  -2   0  12   54.19    2.70
  -2   0  12   53.69    2.20
  -2   0  12   46.80    2.60
   1   0 -12  234.58    6.90
   1   0 -12  232.58    6.00
   1   0 -12  229.78    6.00
   1   0 -12  216.18    6.90
  -1   0  12  226.18    6.90
  -1   0  12  233.68    6.90
  -1   0  12  228.78    6.30
   0   0 -12   34.30    2.00
   0   0 -12   38.50    2.20
   0   0  12   36.40    2.10
   0   0  12   37.10    1.40
   0   0  12   39.50    1.90
   0   0  12   34.80    1.30
  -1   0 -12  216.08    6.20
  -1   0 -12  210.48    6.50
  -1   0 -12  216.88    6.40
   1   0  12  194.98    6.30
   1   0  12  210.78    6.20
   1   0  12  198.38    5.40
  -2   0 -12  167.48    5.80
  -2   0 -12  172.28    5.40
   2   0  12  167.18    4.50
   2   0  12  165.78    5.40
   2   0  12  167.88    5.80
   3   0  12   17.80    1.30
   3   0  12   16.40    2.10
   4   0  12   19.40    2.90
   4   0  12   20.40    1.90
   5   0  12   73.79    6.00
   5   0  12   61.79    3.50
   5  -1 -12    1.40    2.40
   5  -1 -12    0.40    1.70
  -5   1  12    0.40    2.40
   4  -1 -12    0.10    1.70
   4  -1 -12    1.30    1.20
  -4   1  12    1.10    1.80
   3  -1 -12  373.36   10.90
   3  -1 -12  371.56   10.20
  -3   1  12  380.26   10.90
  -3   1  12  352.16   10.20
  -3   1  12  366.06   10.60
   2  -1 -12   89.89    2.90
   2  -1 -12   90.49    3.70
   2  -1 -12   89.59    3.60
  -2   1  12   88.49    3.50
  -2   1  12   90.09    3.10
  -2   1  12   84.59    3.50
   1  -1 -12    0.80    0.40
   1  -1 -12   -0.10    0.90
   1  -1 -12    0.00    0.90
   1  -1 -12    0.20    0.40
  -1   1  12    0.60    0.80
  -1   1  12   -0.30    0.80
  -1   1  12    0.20    0.50
   0  -1 -12   91.09    3.50
   0  -1 -12   95.79    3.60
   0   1  12   88.19    3.50
   0   1  12   96.69    3.20
   0   1  12   94.39    2.80
  -1  -1 -12  242.68    7.30
   1   1  12  233.08    6.30
   1   1  12  235.98    7.10
  -2  -1 -12    0.70    1.30
   2   1  12    1.00    0.50
   2   1  12    1.70    1.10
   2   1  12    0.70    1.40
   3   1  12   13.60    2.30
   3   1  12   14.90    1.50
   4   1  12   22.90    3.00
   4   1  12   22.90    2.20
   5   1  12  119.89    7.30
   5  -2 -12  122.19    5.00
   5  -2 -12  109.19    5.50
  -5   2  12  118.69    5.60
   4  -2 -12  382.26   11.80
   4  -2 -12  386.76   11.00
  -4   2  12  393.36   11.80
   3  -2 -12  187.38    6.40
   3  -2 -12  187.48    5.70
  -3   2  12  183.08    6.10
  -3   2  12  186.68    6.30
  -3   2  12  183.98    5.80
   2  -2 -12    1.50    1.10
   2  -2 -12    0.80    0.60
  -2   2  12    1.30    1.00
  -2   2  12    1.40    1.00
  -2   2  12    1.80    0.80
   1  -2 -12  149.19    4.20
   1  -2 -12  155.18    5.20
  -1   2  12  152.58    4.50
  -1   2  12  153.08    5.10
  -1   2  12  152.08    4.70
   0  -2 -12  141.09    5.00
   0   2  12  146.79    4.20
   0   2  12  143.19    4.90
  -1  -2 -12   19.80    2.20
   1   2  12   15.20    1.70
   1   2  12   19.70    1.20
  -2  -2 -12  289.47    9.50
   2   2  12  305.97    9.60
   2   2  12  311.97    9.00
   2   2  12  306.67    8.30
   3   2  12   13.80    2.30
   3   2  12   20.20    1.80
   4   2  12    4.10    1.50
   4   2  12    5.60    3.00
   5  -3 -12   59.19    3.90
   5  -3 -12   59.19    4.30
  -5   3  12   58.19    4.60
   4  -3 -12   86.59    3.90
   4  -3 -12   86.09    4.50
  -4   3  12  101.09    4.60
   3  -3 -12   10.10    1.70
   3  -3 -12   10.10    1.30
  -3   3  12   12.40    1.80
  -3   3  12   14.20    1.80
  -3   3  12   13.30    1.50
   2  -3 -12  129.49    4.90
   2  -3 -12  128.19    4.10
  -2   3  12  128.29    4.20
  -2   3  12  133.79    4.70
   1  -3 -12  401.96   11.80
   1  -3 -12  419.76   11.00
  -1   3  12  409.86   11.20
  -1   3  12  426.96   11.90
   0  -3 -12    7.80    1.60
   0  -3 -12    6.60    0.70
   0  -3 -12    7.00    0.70
   0   3  12    6.40    1.30
   0   3  12    6.30    0.90
  -1  -3 -12   27.00    2.40
   1   3  12   28.10    1.70
   1   3  12   29.10    2.40
  -2  -3 -12    0.80    1.80
   2   3  12    0.30    0.90
   2   3  12    0.00    1.30
   2   3  12    0.40    1.80
   3   3  12   44.00    4.20
   3   3  12   41.50    2.60
   4   3  12   26.70    2.40
   4   3  12   23.00    3.70
   5  -4 -12    1.40    2.50
   5  -4 -12    2.10    2.00
  -5   4  12    1.00    2.20
   4  -4 -12  124.69    4.80
   4  -4 -12  121.79    5.40
  -4   4  12  120.19    5.00
  -4   4  12  127.69    5.30
   3  -4 -12  203.58    6.90
   3  -4 -12  195.18    6.10
  -3   4  12  204.08    6.30
  -3   4  12  192.58    6.70
   2  -4 -12   90.79    3.20
   2  -4 -12   88.79    4.00
  -2   4  12   93.69    4.00
  -2   4  12   86.89    3.40
   1  -4 -12 1029.50   27.10
   1  -4 -12 1026.40   28.00
  -1   4  12 1082.89   28.10
  -1   4  12 1070.39   27.30
   0  -4 -12   60.09    2.10
   0  -4 -12   57.69    3.20
   0   4  12   58.49    2.50
   0   4  12   58.29    3.10
  -1  -4 -12   41.80    1.40
  -1  -4 -12   44.10    3.10
   1   4  12   44.10    3.00
   1   4  12   39.70    2.30
   1   4  12   51.19    3.20
  -2  -4 -12   31.40    3.60
   2   4  12   32.20    2.30
   2   4  12   28.30    3.10
   3   4  12   -0.20    1.40
   3   4  12    2.50    2.80
   5  -5 -12   42.10    4.50
   4  -5 -12  166.88    6.70
   4  -5 -12  165.28    6.00
  -4   5  12  189.78    6.60
   3  -5 -12   56.89    3.70
   3  -5 -12   49.70    2.90
  -3   5  12   48.90    3.40
   2  -5 -12    3.70    1.60
   2  -5 -12    5.80    1.20
  -2   5  12    2.20    1.20
  -2   5  12    3.90    1.70
   1  -5 -12   23.50    1.70
   1  -5 -12   20.50    2.30
  -1   5  12   25.00    2.60
  -1   5  12   21.40    2.00
   0  -5 -12  298.87    8.40
   0  -5 -12  302.77    9.60
   0   5  12  306.17    9.50
   0   5  12  321.77    8.90
  -1  -5 -12   18.00    1.40
  -1  -5 -12   13.70    2.30
   1   5  12   17.50    2.40
   1   5  12   15.60    2.30
   1   5  12   13.30    1.60
  -2  -5 -12    0.00    2.50
   2   5  12    0.70    1.40
   2   5  12   -0.10    2.40
   3   5  12    5.00    3.20
   3   5  12    3.00    1.90
   4  -6 -12   16.10    2.20
   4  -6 -12   15.30    2.80
  -4   6  12   18.20    2.80
   3  -6 -12   39.30    2.90
   3  -6 -12   41.20    3.50
  -3   6  12   43.00    3.30
   2  -6 -12   89.89    4.40
   2  -6 -12   79.09    3.50
  -2   6  12   85.29    3.70
  -2   6  12   81.29    4.30
   1  -6 -12    6.10    2.00
   1  -6 -12    6.40    1.30
  -1   6  12    4.20    1.70
  -1   6  12    6.20    1.60
   0  -6 -12   -0.20    1.90
   0  -6 -12    0.70    1.00
   0   6  12    1.50    2.00
   0   6  12    1.40    1.40
  -1  -6 -12  117.99    5.80
  -1  -6 -12  116.69    3.90
   1   6  12  122.09    5.40
   1   6  12  112.29    5.40
   1   6  12  115.69    4.70
  -2  -6 -12   78.19    2.80
   2   6  12   77.69    4.20
   2   6  12   71.79    5.00
   4  -7 -12   75.69    4.50
  -4   7  12   76.29    5.00
   3  -7 -12   66.29    3.90
  -3   7  12   70.09    4.60
   2  -7 -12    6.40    3.70
   2  -7 -12    5.20    1.60
  -2   7  12    4.50    2.30
   1  -7 -12   23.10    2.40
   1  -7 -12   24.40    2.80
  -1   7  12   23.60    3.00
  -1   7  12   19.70    2.30
   0  -7 -12    6.30    1.50
   0  -7 -12    6.30    2.30
   0   7  12    4.20    1.90
   0   7  12    4.60    2.40
   0   7  12    6.80    2.60
  -1  -7 -12   21.30    3.50
  -1  -7 -12   27.50    2.40
   1   7  12   29.30    2.80
   1   7  12   30.50    3.40
   1   7  12   28.30    3.70
  -2  -7 -12   38.20    2.50
   2   7  12   40.70    4.70
   2   7  12   44.10    4.30
   3  -8 -12    0.20    2.10
  -3   8  12    1.70    2.50
   2  -8 -12   26.30    2.60
  -2   8  12   34.30    3.80
   1  -8 -12   34.20    3.20
  -1   8  12   37.20    3.90
   0  -8 -12   31.70    3.10
   0   8  12   29.40    3.90
   0   9 -13   37.10    2.60
   0  -9  13   33.30    4.20
   0  -9  13   32.90    3.10
  -1   9 -13    9.40    3.20
   1  -9  13    7.50    2.30
   1  -9  13    7.60    3.50
  -2   9 -13   74.69    5.70
  -2   9 -13   76.29    6.50
   2  -9  13   77.79    7.50
   2  -9  13   68.19    4.50
  -2  -8  13    9.30    4.00
   1   8 -13   15.80    3.30
   1   8 -13   13.60    1.80
  -1  -8  13   10.30    2.30
  -1  -8  13   11.30    3.40
   0   8 -13    9.00    2.80
   0   8 -13    7.60    1.20
   0  -8  13    8.10    1.90
   0  -8  13    7.40    2.90
  -1   8 -13   15.30    2.90
   1  -8  13   20.50    2.20
   1  -8  13   18.20    3.20
  -2   8 -13   22.50    3.20
  -2   8 -13   21.10    3.30
   2  -8  13   20.80    2.10
   2  -8  13   18.80    3.50
  -3   8 -13   37.30    4.60
   3  -8  13   33.90    4.10
   3  -8  13   37.10    3.10
   2   7 -13   26.20    2.20
   2   7 -13   31.50    3.50
  -2  -7  13   21.70    3.70
   1   7 -13    7.40    2.30
   1   7 -13    8.70    1.40
  -1  -7  13    9.10    2.90
  -1  -7  13    6.60    1.80
   0   7 -13   33.30    3.60
   0   7 -13   34.20    1.70
   0  -7  13   32.70    3.90
   0  -7  13   37.80    2.80
  -1   7 -13   26.60    2.90
  -1   7 -13   27.40    3.40
   1  -7  13   29.70    2.50
   1  -7  13   23.70    3.00
  -2   7 -13    0.50    2.10
  -2   7 -13    0.00    2.00
   2  -7  13   -0.10    1.20
   2  -7  13    0.60    2.30
  -3   7 -13    3.00    2.50
   3  -7  13    2.00    1.40
   3  -7  13    4.00    2.60
  -4   7 -13   48.50    4.90
   4  -7  13   48.30    3.20
   3   6 -13    2.90    2.60
   3   6 -13    1.90    1.80
  -3  -6  13    3.20    2.70
   2   6 -13   20.00    2.60
   2   6 -13   17.70    1.80
  -2  -6  13   12.90    2.10
  -2  -6  13   20.20    3.20
   1   6 -13  100.39    4.90
   1   6 -13   97.39    3.50
  -1  -6  13  100.19    5.20
  -1  -6  13  104.79    4.10
   0   6 -13   19.80    2.50
   0   6 -13   19.90    1.00
   0  -6  13   19.50    2.00
   0  -6  13   16.70    2.60
  -1   6 -13   21.70    2.50
  -1   6 -13   20.40    2.60
   1  -6  13   23.10    2.70
   1  -6  13   23.70    2.00
  -2   6 -13    4.20    1.90
  -2   6 -13    3.50    1.90
   2  -6  13    4.10    2.00
   2  -6  13    4.20    1.00
  -3   6 -13    5.60    2.50
   3  -6  13    6.50    1.20
  -4   6 -13   27.90    3.80
   4  -6  13   27.40    2.50
   4   5 -13    0.70    2.10
  -4  -5  13   -0.10    3.30
   3   5 -13   10.60    1.80
   3   5 -13   10.80    2.40
  -3  -5  13    9.50    2.60
   2   5 -13   50.09    3.40
   2   5 -13   48.00    2.60
  -2  -5  13   52.19    3.80
  -2  -5  13   56.99    3.10
   1   5 -13  570.74   16.50
   1   5 -13  581.44   15.20
  -1  -5  13  596.64   16.80
  -1  -5  13  580.74   15.70
   0   5 -13   10.50    1.90
   0  -5  13   11.20    2.10
   0  -5  13    9.00    1.20
  -1   5 -13    2.80    1.60
  -1   5 -13    3.00    1.80
   1  -5  13    3.00    1.80
   1  -5  13    1.90    0.80
  -2   5 -13    0.60    1.50
  -2   5 -13    0.40    1.60
   2  -5  13    0.10    0.70
   2  -5  13    0.60    1.60
  -3   5 -13   -0.40    1.90
   3  -5  13    0.50    0.80
  -4   5 -13    0.80    2.50
   4  -5  13    0.30    1.20
  -5   5 -13    9.70    3.60
   4   4 -13    0.90    2.40
   4   4 -13    1.10    1.80
  -4  -4  13    1.00    2.80
   3   4 -13    2.80    1.30
   3   4 -13    4.20    2.00
   3   4 -13    4.30    2.00
  -3  -4  13    3.70    2.30
  -3  -4  13    6.20    1.80
   2   4 -13    2.20    1.50
   2   4 -13    2.60    1.00
   2   4 -13    0.70    1.60
  -2  -4  13    1.00    1.60
  -2  -4  13    0.90    1.20
   1   4 -13  554.74   14.20
   1   4 -13  533.65   15.30
  -1  -4  13  546.05   14.60
  -1  -4  13  544.85   15.60
   0   4 -13    2.30    1.40
   0  -4  13    0.60    0.70
   0  -4  13    1.40    1.30
  -1   4 -13  154.28    5.70
  -1   4 -13  160.28    5.60
   1  -4  13  166.78    5.80
   1  -4  13  159.38    4.60
  -2   4 -13   16.10    1.90
  -2   4 -13   12.90    1.90
   2  -4  13   14.60    1.10
  -3   4 -13   13.50    2.40
   3  -4  13   14.60    1.30
  -4   4 -13  173.68    7.00
   4  -4  13  167.28    5.10
  -5   4 -13    3.90    3.10
   5  -4  13    3.60    1.50
   5   3 -13   13.10    3.50
   5   3 -13   12.30    2.80
   4   3 -13  188.48    6.30
   4   3 -13  185.58    7.20
  -4  -3  13  179.48    7.60
   3   3 -13    4.80    1.80
   3   3 -13    4.20    1.20
   3   3 -13    4.50    1.70
  -3  -3  13    4.80    1.90
  -3  -3  13    7.10    1.60
   2   3 -13   64.89    3.20
   2   3 -13   62.99    2.50
   2   3 -13   71.29    3.30
  -2  -3  13   56.09    2.70
  -2  -3  13   64.29    3.70
   1   3 -13   64.39    2.00
   1   3 -13   64.59    2.90
   1   3 -13   65.79    3.20
  -1  -3  13   64.39    2.50
  -1  -3  13   66.69    3.50
   0   3 -13  440.36   11.90
   0   3 -13  441.76   12.40
   0  -3  13  427.36   11.40
   0  -3  13  426.06   12.40
  -1   3 -13 1454.15   38.00
  -1   3 -13 1447.06   38.10
  -1   3 -13 1466.05   37.50
   1  -3  13 1451.05   38.10
  -2   3 -13  100.89    4.00
  -2   3 -13  105.59    4.30
   2  -3  13  100.49    2.80
  -3   3 -13   17.30    2.30
   3  -3  13   16.40    1.10
  -4   3 -13    0.80    2.10
   4  -3  13    0.80    0.90
  -5   3 -13   10.40    3.10
   5  -3  13   14.10    1.70
   5   2 -13   22.30    2.80
   5   2 -13   22.00    3.40
  -5  -2  13   18.00    3.50
   4   2 -13    3.90    1.50
   4   2 -13    5.80    2.00
  -4  -2  13    7.50    2.50
   3   2 -13    4.10    1.70
   3   2 -13    2.90    1.10
   3   2 -13    3.50    1.70
  -3  -2  13    2.70    1.70
  -3  -2  13    3.10    1.30
   2   2 -13   57.09    2.20
   2   2 -13   57.09    3.00
   2   2 -13   57.09    3.00
  -2  -2  13   60.49    3.20
  -2  -2  13   54.09    2.50
   1   2 -13    0.50    0.40
   1   2 -13    0.00    1.00
   1   2 -13    0.80    1.00
   1   2 -13    0.10    0.30
  -1  -2  13    0.10    0.60
  -1  -2  13   -0.10    1.20
   0   2 -13   52.89    2.50
   0   2 -13   58.89    2.80
   0  -2  13   57.69    1.90
   0  -2  13   55.69    2.90
  -1   2 -13  661.73   18.10
  -1   2 -13  676.93   18.20
  -1   2 -13  667.03   17.90
   1  -2  13  658.33   18.20
   1  -2  13  678.83   17.00
  -2   2 -13   57.19    3.10
  -2   2 -13   58.69    3.00
  -2   2 -13   65.49    3.00
   2  -2  13   55.69    2.90
  -3   2 -13    9.80    1.90
   3  -2  13   11.10    1.00
   3  -2  13   13.70    2.00
  -4   2 -13    0.00    1.90
   4  -2  13    0.00    0.90
   5  -2  13  120.99    4.40
   5   1 -13    7.60    2.20
   5   1 -13    9.60    3.00
  -5  -1  13    7.10    2.90
   4   1 -13    0.20    1.30
   4   1 -13    0.90    1.90
  -4  -1  13    1.60    2.10
   3   1 -13    2.00    1.40
   3   1 -13    1.50    1.40
   3   1 -13    1.40    1.00
  -3  -1  13    1.20    1.30
  -3  -1  13    0.80    1.00
  -3  -1  13    1.80    1.50
   2   1 -13   61.69    3.00
   2   1 -13   55.59    2.20
   2   1 -13   55.79    3.00
  -2  -1  13   61.49    3.20
  -2  -1  13   58.39    2.40
   1   1 -13    3.00    1.10
   1   1 -13    3.80    1.20
   1   1 -13    2.90    0.30
   1   1 -13    3.00    0.30
  -1  -1  13    2.30    0.60
  -1  -1  13    3.80    1.20
   0   1 -13  320.27    9.20
   0   1 -13  323.87    9.10
   0  -1  13  306.47    9.00
   0  -1  13  307.57    8.20
  -1   1 -13  630.54   16.80
  -1   1 -13  631.04   16.80
  -1   1 -13  614.14   16.80
   1  -1  13  608.54   16.70
   1  -1  13  610.34   16.80
  -2   1 -13  595.04   16.60
  -2   1 -13  605.24   16.30
  -2   1 -13  591.84   16.40
   2  -1  13  607.94   16.40
   2  -1  13  606.84   16.60
  -3   1 -13   47.80    3.10
   3  -1  13   53.19    1.80
   3  -1  13   49.10    3.40
   4  -1  13    5.10    2.50
   4  -1  13    4.70    1.00
   5  -1  13   26.10    3.90
   5  -1  13   26.90    2.20
   5   0 -13   32.30    3.70
   5   0 -13   24.90    2.60
  -5   0  13   25.80    3.60
   4   0 -13   24.80    2.40
   4   0 -13   25.80    2.80
  -4   0  13   25.70    3.00
   3   0 -13    2.90    1.40
   3   0 -13    1.90    0.90
   3   0 -13    1.70    1.50
  -3   0  13    2.30    1.30
  -3   0  13    3.60    1.10
  -3   0  13    1.40    1.40
   2   0 -13    1.00    0.60
   2   0 -13    1.00    1.00
   2   0 -13    0.70    1.10
  -2   0  13    0.70    1.00
  -2   0  13    0.90    1.10
  -2   0  13    0.40    0.70
   1   0 -13    7.50    1.30
   1   0 -13    7.70    0.50
   1   0 -13    8.30    0.50
   1   0 -13    7.40    1.20
  -1   0  13    7.90    1.30
  -1   0  13    8.00    0.80
  -1   0  13    6.30    1.20
   0   0 -13  262.17    7.50
   0   0 -13  250.07    7.40
   0   0  13  245.18    7.20
   0   0  13  234.58    7.40
   0   0  13  242.18    6.50
  -1   0 -13   69.69    2.90
  -1   0 -13   70.49    3.10
  -1   0 -13   65.99    3.00
   1   0  13   70.29    2.90
   1   0  13   70.39    3.00
   1   0  13   65.39    1.90
   1   0  13   63.99    1.90
  -2   0 -13   15.70    1.90
   2   0  13   19.20    0.90
   2   0  13   18.20    1.80
   2   0  13   16.30    2.00
   3   0  13  153.28    5.90
   3   0  13  145.89    4.30
   4   0  13   13.10    2.70
   4   0  13   13.40    1.40
   5   0  13    3.40    3.20
   5  -1 -13  122.79    5.00
   5  -1 -13  115.89    6.10
  -5   1  13  121.49    6.00
   4  -1 -13   62.39    3.70
   4  -1 -13   55.29    3.00
  -4   1  13   55.79    3.90
   3  -1 -13    7.50    1.60
   3  -1 -13   10.80    1.30
  -3   1  13   13.70    2.00
  -3   1  13   13.40    1.80
  -3   1  13   10.50    1.40
   2  -1 -13  112.39    4.30
   2  -1 -13  109.79    3.40
   2  -1 -13  115.69    4.20
  -2   1  13  103.69    4.10
  -2   1  13  103.49    4.00
  -2   1  13  106.29    3.60
   1  -1 -13    8.10    0.70
   1  -1 -13    8.00    1.40
   1  -1 -13    8.10    1.40
   1  -1 -13    8.10    0.70
  -1   1  13    7.20    1.20
  -1   1  13    7.30    1.20
  -1   1  13    7.20    0.80
   0  -1 -13   16.60    1.90
   0  -1 -13   14.90    1.70
   0   1  13   12.60    1.00
   0   1  13   12.70    1.50
   0   1  13   14.30    1.60
  -1  -1 -13  128.19    4.70
   1   1  13  127.79    3.60
   1   1  13  126.09    4.50
  -2  -1 -13  213.08    7.20
   2   1  13  210.38    5.80
   2   1  13  212.48    6.60
   2   1  13  210.08    7.20
   3   1  13  131.29    4.10
   3   1  13  135.49    5.80
   4   1  13    0.70    1.20
   4   1  13    1.10    2.40
   5  -2 -13   97.29    5.30
   5  -2 -13   96.89    4.70
  -5   2  13  103.59    5.80
   4  -2 -13   77.29    4.20
   4  -2 -13   83.19    3.60
  -4   2  13   78.49    4.40
   3  -2 -13   45.10    2.90
   3  -2 -13   45.00    2.30
  -3   2  13   43.30    2.90
  -3   2  13   42.50    2.80
  -3   2  13   42.90    2.50
   2  -2 -13  468.05   12.50
   2  -2 -13  463.55   13.30
  -2   2  13  467.95   13.00
  -2   2  13  473.75   12.70
  -2   2  13  473.95   13.30
   1  -2 -13    9.50    1.50
   1  -2 -13    6.70    0.60
  -1   2  13    8.20    1.40
  -1   2  13    5.90    0.80
   0  -2 -13  103.89    4.00
   0   2  13   89.39    3.80
   0   2  13   98.19    3.10
  -1  -2 -13   57.49    3.10
   1   2  13   61.29    2.20
   1   2  13   62.69    3.00
  -2  -2 -13   48.40    3.20
   2   2  13   50.09    3.00
   2   2  13   53.39    3.30
   2   2  13   50.09    2.10
   3   2  13    2.90    1.10
   3   2  13    1.20    1.90
   4   2  13   69.49    3.50
   4   2  13   63.99    5.60
   5  -3 -13   11.60    2.30
   5  -3 -13   13.00    2.90
  -5   3  13   13.70    2.70
   4  -3 -13   89.29    4.60
   4  -3 -13   81.99    3.70
  -4   3  13   91.29    4.60
  -4   3  13   85.79    4.10
   3  -3 -13  255.67    7.40
   3  -3 -13  247.88    8.20
  -3   3  13  243.18    7.50
  -3   3  13  248.18    8.00
  -3   3  13  262.87    8.00
   2  -3 -13  351.16    9.60
   2  -3 -13  350.76   10.60
  -2   3  13  361.76   10.50
  -2   3  13  350.96    9.80
   1  -3 -13  218.48    7.00
   1  -3 -13  208.48    5.90
  -1   3  13  216.08    6.90
  -1   3  13  213.98    6.20
   0  -3 -13  255.57    8.10
   0   3  13  267.57    7.20
   0   3  13  247.38    7.90
  -1  -3 -13    0.10    1.40
   1   3  13    0.40    1.30
   1   3  13    1.50    0.80
  -2  -3 -13    0.60    1.70
   2   3  13   -0.20    0.90
   2   3  13    0.30    1.70
   3   3  13  123.99    5.80
   3   3  13  113.49    4.30
   4   3  13   22.10    3.80
   4   3  13   25.30    2.40
   5  -4 -13  448.66   13.10
   5  -4 -13  437.56   14.00
  -5   4  13  456.05   14.00
   4  -4 -13  121.79    5.60
   4  -4 -13  120.89    4.70
  -4   4  13  125.99    5.20
   3  -4 -13   64.99    3.00
   3  -4 -13   63.79    3.60
  -3   4  13   67.29    3.20
  -3   4  13   60.39    3.40
   2  -4 -13   15.70    2.10
   2  -4 -13   16.40    1.70
  -2   4  13   12.60    1.50
  -2   4  13   18.10    2.20
   1  -4 -13    4.50    1.60
   1  -4 -13    4.70    0.80
  -1   4  13    4.20    1.60
  -1   4  13    6.80    1.20
   0  -4 -13  317.17    8.50
   0  -4 -13  320.17    9.90
   0   4  13  334.07    9.10
   0   4  13  317.17    9.80
  -1  -4 -13   31.40    2.90
   1   4  13   28.80    2.80
   1   4  13   34.20    2.20
   1   4  13   35.40    3.10
  -2  -4 -13   56.79    4.10
   2   4  13   54.19    4.00
   2   4  13   61.59    3.00
   3   4  13   71.99    3.70
   3   4  13   77.09    5.70
   5  -5 -13    1.40    2.30
   5  -5 -13   -0.20    2.80
   4  -5 -13   20.80    2.30
   4  -5 -13   27.20    3.10
  -4   5  13   21.70    2.80
   3  -5 -13   89.49    4.60
   3  -5 -13   88.79    3.70
  -3   5  13   93.59    4.50
   2  -5 -13    8.90    1.90
   2  -5 -13    8.00    1.30
  -2   5  13    7.30    1.80
  -2   5  13   10.50    1.60
   1  -5 -13    6.60    1.70
   1  -5 -13    7.10    1.10
  -1   5  13    8.30    1.40
  -1   5  13    7.70    1.90
   0  -5 -13  602.74   17.20
   0  -5 -13  611.24   15.70
   0   5  13  592.04   16.20
   0   5  13  594.24   17.00
  -1  -5 -13   96.59    2.90
  -1  -5 -13   95.09    5.10
   1   5  13   92.59    3.90
   1   5  13   98.59    4.70
   1   5  13   97.29    5.00
  -2  -5 -13   64.59    4.70
   2   5  13   60.79    4.60
   2   5  13   63.99    3.50
   3   5  13    1.40    1.90
   3   5  13    0.10    3.00
   5  -6 -13   27.50    3.40
   4  -6 -13  130.19    6.20
   4  -6 -13  128.69    5.30
  -4   6  13  123.99    5.90
   3  -6 -13  189.48    7.00
   3  -6 -13  195.68    6.40
  -3   6  13  185.68    7.20
   2  -6 -13   11.80    1.60
   2  -6 -13    7.50    2.10
  -2   6  13    9.60    1.80
  -2   6  13   10.30    2.10
   1  -6 -13   26.20    2.90
   1  -6 -13   26.80    2.10
  -1   6  13   23.40    2.70
  -1   6  13   29.20    2.70
   0  -6 -13    0.90    2.10
   0  -6 -13    1.30    1.00
   0   6  13    0.40    1.40
   0   6  13    1.80    1.90
  -1  -6 -13   25.30    3.30
  -1  -6 -13   20.00    1.80
   1   6  13   18.20    3.10
   1   6  13   20.10    2.20
   1   6  13   19.30    2.60
   2   6  13   44.80    5.30
   2   6  13   43.60    3.80
   4  -7 -13   25.00    2.80
  -4   7  13   20.80    3.30
   3  -7 -13    0.20    1.70
  -3   7  13    0.50    2.40
   2  -7 -13   57.39    3.30
   2  -7 -13   55.69    4.30
  -2   7  13   52.89    4.10
   1  -7 -13  122.59    4.40
   1  -7 -13  123.39    5.70
  -1   7  13  111.89    5.00
  -1   7  13  114.79    5.60
   0  -7 -13   -0.70    2.20
   0  -7 -13    0.30    1.30
   0   7  13    0.70    2.10
   0   7  13    0.30    1.90
   0   7  13    0.10    2.40
  -1  -7 -13   33.80    4.20
  -1  -7 -13   29.90    2.40
   1   7  13   33.90    3.00
   1   7  13   32.50    3.80
   1   7  13   28.60    4.10
   3  -8 -13   18.30    2.70
  -3   8  13   15.60    3.50
   2  -8 -13    5.50    2.00
  -2   8  13    4.70    2.70
   1  -8 -13   15.20    2.10
  -1   8  13   19.50    3.30
   0  -8 -13   16.60    2.10
   0   8  13   18.00    3.30
   1  -9  14   55.09    4.60
   1   8 -14   30.20    2.60
   1   8 -14   31.00    3.90
  -1  -8  14   30.00    3.00
  -1  -8  14   31.00    4.30
   0   8 -14   34.80    3.80
   0   8 -14   34.80    1.80
   0  -8  14   34.90    4.00
   0  -8  14   34.80    3.40
  -1   8 -14   -0.70    2.20
   1  -8  14    1.00    1.70
   1  -8  14    1.00    2.70
  -2   8 -14    1.20    2.60
  -2   8 -14    2.10    3.10
   2  -8  14   -0.40    3.20
   2  -8  14    2.00    1.70
   3  -8  14   87.39    9.50
   3  -8  14   96.19    5.20
   2   7 -14   12.20    2.90
   2   7 -14   13.10    1.90
  -2  -7  14   10.70    3.50
   1   7 -14   14.40    1.50
   1   7 -14   17.40    3.00
  -1  -7  14   13.40    2.00
  -1  -7  14   18.90    3.20
   0   7 -14    8.00    2.50
   0  -7  14    6.60    2.40
   0  -7  14    5.10    1.50
  -1   7 -14  117.69    5.40
   1  -7  14  114.79    6.10
   1  -7  14  119.19    4.40
  -2   7 -14   97.19    5.60
  -2   7 -14  104.09    5.20
   2  -7  14  107.29    6.00
  -3   7 -14   41.80    4.40
   3  -7  14   47.10    4.60
   3  -7  14   41.90    2.80
   3   6 -14   53.79    4.90
   3   6 -14   47.30    3.50
  -3  -6  14   44.70    5.40
   2   6 -14   46.90    2.80
   2   6 -14   44.40    4.10
  -2  -6  14   44.50    3.50
  -2  -6  14   44.40    4.70
   1   6 -14    3.00    0.90
   1   6 -14    4.00    1.90
  -1  -6  14    5.70    2.60
  -1  -6  14    3.60    1.50
   0   6 -14    0.80    1.80
   0  -6  14    1.30    1.10
   0  -6  14    1.00    2.10
  -1   6 -14   47.60    3.60
  -1   6 -14   46.80    3.50
   1  -6  14   44.90    2.40
   1  -6  14   47.80    3.70
  -2   6 -14   17.30    2.60
  -2   6 -14   16.30    2.40
   2  -6  14   21.20    1.90
   2  -6  14   18.10    2.70
  -3   6 -14    2.50    2.30
   3  -6  14    2.60    1.20
  -4   6 -14    0.50    2.70
   4  -6  14    0.70    1.40
   4   5 -14   52.69    4.30
   3   5 -14   22.90    3.00
   3   5 -14   26.40    2.70
  -3  -5  14   23.50    3.60
   2   5 -14   34.60    3.50
   2   5 -14   35.70    2.20
  -2  -5  14   37.50    3.60
  -2  -5  14   39.50    2.90
   1   5 -14   48.90    3.30
   1   5 -14   51.29    2.10
  -1  -5  14   54.19    2.70
  -1  -5  14   56.09    3.70
   0   5 -14    3.70    1.60
   0  -5  14    6.10    1.10
   0  -5  14    5.60    1.80
  -1   5 -14    9.40    2.00
  -1   5 -14   12.00    1.90
   1  -5  14   13.80    1.20
   1  -5  14   16.10    2.40
  -2   5 -14   18.10    2.40
  -2   5 -14   19.80    2.40
   2  -5  14   15.20    2.40
   2  -5  14   18.00    1.50
  -3   5 -14  183.28    7.30
   3  -5  14  188.68    5.50
  -4   5 -14   46.20    4.70
   4  -5  14   42.30    2.50
   4   4 -14   30.80    3.60
   4   4 -14   34.40    3.30
  -4  -4  14   41.80    4.40
   3   4 -14    3.40    2.00
   3   4 -14    1.70    2.00
   3   4 -14    0.60    1.30
  -3  -4  14    2.30    1.60
  -3  -4  14    1.10    2.10
   2   4 -14   81.89    3.90
   2   4 -14   82.09    3.10
   2   4 -14   79.69    4.00
  -2  -4  14   76.19    3.40
  -2  -4  14   82.99    4.30
   1   4 -14   16.00    2.00
   1   4 -14   14.60    1.00
  -1  -4  14   13.40    2.10
  -1  -4  14   14.70    1.40
   0   4 -14  482.55   13.70
   0  -4  14  474.15   12.70
   0  -4  14  474.65   13.80
  -1   4 -14    3.50    1.40
  -1   4 -14    3.40    1.50
   1  -4  14    4.10    1.60
   1  -4  14    4.80    0.80
  -2   4 -14    0.10    1.50
  -2   4 -14    1.40    1.50
   2  -4  14    1.70    1.60
   2  -4  14    0.60    0.60
  -3   4 -14   51.19    3.90
   3  -4  14   53.49    2.10
  -4   4 -14   35.80    4.20
   4  -4  14   36.90    2.20
   4   3 -14   23.70    3.10
   4   3 -14   32.80    3.00
  -4  -3  14   30.30    3.80
   3   3 -14    0.30    1.10
   3   3 -14    1.00    1.70
   3   3 -14    0.60    1.90
  -3  -3  14    0.90    1.40
  -3  -3  14   -0.20    2.00
   2   3 -14   71.19    2.70
   2   3 -14   69.59    3.50
   2   3 -14   67.39    3.50
  -2  -3  14   81.99    4.20
  -2  -3  14   73.69    3.10
   1   3 -14   31.40    2.20
   1   3 -14   27.50    2.50
   1   3 -14   28.30    1.10
  -1  -3  14   27.90    1.70
  -1  -3  14   31.50    2.60
   0   3 -14  636.44   17.80
   0   3 -14  659.53   17.30
   0  -3  14  639.54   16.80
   0  -3  14  648.34   17.90
  -1   3 -14    2.10    1.40
  -1   3 -14    1.50    1.20
   1  -3  14    2.60    0.50
   1  -3  14    2.70    1.60
  -2   3 -14   32.70    2.90
  -2   3 -14   36.80    2.70
   2  -3  14   32.80    1.20
   2  -3  14   26.20    2.60
  -3   3 -14   21.40    2.50
   3  -3  14   20.30    1.20
  -4   3 -14    2.80    2.30
   4  -3  14    4.90    1.00
  -5   3 -14  192.98    8.40
   5   2 -14   16.90    3.60
   5   2 -14   14.60    2.60
  -5  -2  14   15.00    3.90
   4   2 -14    5.20    1.60
   4   2 -14    6.80    2.40
  -4  -2  14    6.30    2.60
   3   2 -14   88.19    3.60
   3   2 -14  102.39    4.60
   3   2 -14   96.69    4.40
  -3  -2  14  105.39    4.80
  -3  -2  14  108.09    4.10
   2   2 -14    0.60    1.30
   2   2 -14    2.20    1.40
   2   2 -14    1.50    0.70
  -2  -2  14    0.90    0.90
  -2  -2  14    1.90    1.50
   1   2 -14   20.40    2.00
   1   2 -14   24.50    2.30
  -1  -2  14   22.30    2.40
  -1  -2  14   23.20    1.50
   0   2 -14  199.88    6.50
   0   2 -14  200.28    6.20
   0  -2  14  201.98    6.40
   0  -2  14  193.38    5.40
  -1   2 -14  194.48    6.40
  -1   2 -14  202.48    6.30
  -1   2 -14  199.78    6.60
   1  -2  14  213.48    6.70
   1  -2  14  197.48    5.30
   1  -2  14  201.58    5.30
  -2   2 -14  360.56   10.50
  -2   2 -14  346.87   10.70
  -2   2 -14  363.06   10.60
   2  -2  14  379.16   10.60
  -3   2 -14   33.20    3.00
   3  -2  14   34.00    3.00
   3  -2  14   33.70    1.40
  -4   2 -14   29.80    3.50
   4  -2  14   29.20    1.80
   5  -2  14    2.00    1.80
   5   1 -14   35.20    4.10
   5   1 -14   44.00    3.70
  -5  -1  14   33.50    4.30
   4   1 -14    6.30    1.50
   4   1 -14    4.30    1.90
  -4  -1  14    7.20    2.50
   3   1 -14   60.19    3.40
   3   1 -14   61.39    2.60
   3   1 -14   49.80    3.20
  -3  -1  14   58.59    3.50
  -3  -1  14   58.69    3.30
  -3  -1  14   59.29    2.80
   2   1 -14   56.59    2.10
   2   1 -14   53.59    3.00
   2   1 -14   50.39    2.80
  -2  -1  14   53.69    2.40
  -2  -1  14   51.59    3.20
   1   1 -14   37.00    2.50
   1   1 -14   33.20    2.20
  -1  -1  14   32.70    2.40
  -1  -1  14   32.90    1.60
   0   1 -14  120.99    4.40
   0   1 -14  122.19    4.20
   0  -1  14  112.09    4.10
   0  -1  14  117.49    3.40
  -1   1 -14  181.58    6.00
  -1   1 -14  181.98    6.10
  -1   1 -14  191.28    6.10
   1  -1  14  181.98    6.00
   1  -1  14  195.88    6.10
  -2   1 -14  469.15   13.50
  -2   1 -14  480.85   13.70
  -2   1 -14  482.45   13.40
   2  -1  14  461.65   13.60
   2  -1  14  505.35   13.50
   3  -1  14    7.60    2.00
   3  -1  14   10.20    0.80
   4  -1  14    0.70    1.00
   4  -1  14    0.00    2.40
   5   0 -14   23.90    3.30
   5   0 -14   31.20    2.70
  -5   0  14   27.40    3.60
   4   0 -14   12.60    2.40
   4   0 -14   14.60    1.70
  -4   0  14   12.50    2.40
   3   0 -14   50.39    3.40
   3   0 -14   57.19    3.00
   3   0 -14   56.49    2.50
  -3   0  14   48.50    2.90
  -3   0  14   54.89    2.70
  -3   0  14   53.19    3.50
   2   0 -14   35.90    2.50
   2   0 -14   36.20    1.60
   2   0 -14   36.20    2.40
  -2   0  14   39.40    2.00
  -2   0  14   41.70    2.70
  -2   0  14   38.10    2.40
   1   0 -14    2.30    1.10
   1   0 -14    2.10    1.20
  -1   0  14    1.90    1.20
  -1   0  14    2.00    0.60
  -1   0  14    1.80    1.00
   0   0 -14   96.49    3.70
   0   0 -14   91.59    3.80
   0   0  14   96.39    3.80
   0   0  14   91.59    2.80
   0   0  14   97.19    3.50
  -1   0 -14   19.80    2.00
  -1   0 -14   16.80    1.80
  -1   0 -14   17.20    1.90
   1   0  14   16.00    2.00
   1   0  14   19.10    2.00
   1   0  14   18.00    0.90
  -2   0 -14   69.79    3.80
   2   0  14   73.09    2.20
   2   0  14   80.49    3.40
   2   0  14   76.19    3.80
   3   0  14  134.49    4.00
   3   0  14  131.69    5.70
   4   0  14    2.40    2.60
   4   0  14    2.10    1.10
   5  -1 -14    3.80    2.00
   5  -1 -14    3.30    2.50
  -5   1  14    6.00    3.00
   4  -1 -14    0.70    1.30
   4  -1 -14    0.70    1.90
  -4   1  14    0.50    1.90
   3  -1 -14   59.49    3.40
   3  -1 -14   61.89    2.70
  -3   1  14   60.99    3.20
  -3   1  14   67.09    3.70
  -3   1  14   63.79    2.90
   2  -1 -14    4.50    1.30
   2  -1 -14    6.60    0.80
   2  -1 -14    7.40    1.50
  -2   1  14    7.10    1.50
  -2   1  14    5.40    1.00
  -2   1  14    5.40    1.30
   1  -1 -14  103.69    3.90
   1  -1 -14   91.79    3.90
  -1   1  14   95.09    3.60
  -1   1  14   94.39    3.10
  -1   1  14   90.39    3.70
   0  -1 -14  508.55   14.10
   0   1  14  495.45   13.10
   0   1  14  502.45   14.10
  -1  -1 -14  230.58    7.40
   1   1  14  232.58    6.10
   1   1  14  216.48    7.10
  -2  -1 -14    0.80    1.60
   2   1  14    0.90    1.60
   2   1  14    0.20    0.60
   2   1  14   -0.10    1.30
   3   1  14   22.50    1.70
   3   1  14   18.70    2.60
   4   1  14   81.69    5.70
   4   1  14   73.19    3.40
   5  -2 -14   58.29    5.00
   5  -2 -14   59.49    3.90
  -5   2  14   57.49    5.00
   4  -2 -14   11.10    2.20
   4  -2 -14   11.70    1.70
  -4   2  14   13.70    2.50
  -4   2  14   10.80    3.00
   3  -2 -14   -0.40    1.50
   3  -2 -14   -0.20    0.90
  -3   2  14    0.00    1.30
  -3   2  14    0.40    1.50
  -3   2  14    0.00    1.10
   2  -2 -14   21.70    2.50
   2  -2 -14   24.00    1.50
  -2   2  14   24.30    1.80
  -2   2  14   24.70    2.40
  -2   2  14   21.40    2.30
   1  -2 -14  126.69    4.80
   1  -2 -14  127.09    3.60
  -1   2  14  132.89    4.00
  -1   2  14  130.89    4.80
   0  -2 -14   88.09    3.90
   0   2  14   85.09    3.70
   0   2  14   81.89    2.80
  -1  -2 -14    2.70    1.40
   1   2  14    3.10    1.30
   1   2  14    1.70    0.70
  -2  -2 -14  186.08    6.90
   2   2  14  188.38    5.40
   2   2  14  185.68    6.30
   2   2  14  175.78    6.80
   3   2  14   53.89    2.60
   3   2  14   55.69    4.50
   4   2  14   24.30    2.20
   4   2  14   22.60    4.00
   5  -3 -14  179.98    6.60
   5  -3 -14  173.18    7.60
  -5   3  14  169.58    7.50
   4  -3 -14   20.20    2.80
   4  -3 -14   20.80    2.00
  -4   3  14   24.60    2.60
  -4   3  14   26.00    2.90
   3  -3 -14   25.30    2.00
   3  -3 -14   25.50    3.00
  -3   3  14   22.80    2.30
  -3   3  14   22.30    2.40
   2  -3 -14  104.69    4.60
   2  -3 -14  106.49    3.50
  -2   3  14  104.99    4.40
  -2   3  14  105.79    3.80
   1  -3 -14  138.89    5.20
   1  -3 -14  133.89    3.90
  -1   3  14  137.89    4.30
  -1   3  14  137.89    5.00
   0  -3 -14   37.70    2.70
   0   3  14   34.90    1.90
   0   3  14   34.70    2.50
  -1  -3 -14  152.18    5.90
   1   3  14  156.98    5.70
   1   3  14  160.48    4.80
  -2  -3 -14   80.19    4.50
   2   3  14   86.09    3.20
   2   3  14   91.99    4.60
   3   3  14    0.90    2.80
   3   3  14    1.90    1.30
   5  -4 -14   10.30    3.00
   5  -4 -14   10.30    2.40
   4  -4 -14    4.00    2.10
   4  -4 -14    5.40    1.70
  -4   4  14    5.40    2.20
   3  -4 -14  120.19    4.40
   3  -4 -14  131.19    5.30
  -3   4  14  128.69    4.70
  -3   4  14  120.69    5.00
   2  -4 -14  136.99    5.40
   2  -4 -14  137.19    4.30
  -2   4  14  134.79    4.60
  -2   4  14  126.39    5.10
   1  -4 -14  407.86   10.80
   1  -4 -14  404.16   12.10
  -1   4  14  397.96   11.90
  -1   4  14  409.36   11.20
   0  -4 -14  198.08    5.40
   0  -4 -14  213.38    7.30
   0   4  14  203.08    6.10
   0   4  14  201.38    6.90
  -1  -4 -14  107.09    5.10
   1   4  14   96.19    5.10
   1   4  14  106.29    3.90
   1   4  14  107.69    4.70
  -2  -4 -14    0.60    2.10
   2   4  14   -0.20    1.30
   2   4  14    1.00    2.20
   3   4  14   11.30    1.90
   3   4  14   10.50    3.20
   5  -5 -14    2.40    3.20
   5  -5 -14    2.10    2.30
   4  -5 -14  226.88    8.40
   4  -5 -14  219.78    7.40
  -4   5  14  228.78    8.10
   3  -5 -14   14.00    2.40
   3  -5 -14   22.90    2.00
  -3   5  14   23.50    2.70
   2  -5 -14    4.20    1.20
   2  -5 -14    6.10    2.00
  -2   5  14    4.00    1.50
  -2   5  14    3.80    1.70
   1  -5 -14   19.50    1.70
   1  -5 -14   20.00    2.40
  -1   5  14   21.80    2.50
  -1   5  14   20.90    2.20
   0  -5 -14  100.89    4.90
   0  -5 -14   98.99    3.10
   0   5  14   91.59    4.70
   0   5  14  102.09    3.90
  -1  -5 -14   21.50    2.90
   1   5  14   32.00    3.10
   1   5  14   23.80    2.50
   1   5  14   28.00    3.40
  -2  -5 -14   11.00    3.20
   2   5  14   10.20    1.90
   2   5  14    9.20    3.20
   4  -6 -14    3.20    2.00
   4  -6 -14    2.00    2.60
  -4   6  14    1.60    2.40
   3  -6 -14   42.90    3.10
   3  -6 -14   42.30    3.90
  -3   6  14   35.40    3.50
   2  -6 -14  113.49    5.40
   2  -6 -14  111.09    4.20
  -2   6  14  115.79    4.70
  -2   6  14  114.39    5.20
   1  -6 -14   42.70    3.90
   1  -6 -14   49.30    2.60
  -1   6  14   50.89    3.90
  -1   6  14   47.70    3.20
   0  -6 -14    1.00    1.00
   0  -6 -14    0.60    2.30
   0   6  14   -0.10    1.50
   0   6  14    1.80    2.00
  -1  -6 -14  450.25   14.10
  -1  -6 -14  444.36   11.80
   1   6  14  449.06   12.90
   1   6  14  459.55   14.20
   1   6  14  456.95   13.80
   2   6  14   11.30    2.40
   2   6  14    8.20    3.20
   4  -7 -14   34.60    3.20
  -4   7  14   33.30    4.00
   3  -7 -14   10.20    2.10
  -3   7  14    9.70    3.00
   2  -7 -14   21.20    3.20
   2  -7 -14   16.70    2.00
  -2   7  14   15.60    2.80
   1  -7 -14    8.10    2.70
   1  -7 -14   11.80    1.70
  -1   7  14    8.70    2.80
  -1   7  14    9.80    2.20
   0  -7 -14    9.70    1.50
   0  -7 -14   12.70    3.30
   0   7  14    7.70    2.60
   0   7  14   12.10    2.30
   0   7  14   10.10    3.20
  -1  -7 -14    0.20    1.20
  -1  -7 -14    1.70    3.50
   1   7  14    0.10    2.20
   1   7  14   -0.30    3.40
   1   7  14    0.20    3.00
   2  -8 -14   39.80    3.60
  -2   8  14   33.10    3.90
   1  -8 -14   30.10    2.80
  -1   8  14   32.40    3.90
   1   8 -15  114.99    4.10
   1   8 -15  112.99    6.90
  -1  -8  15  112.19    5.60
  -1  -8  15  111.29    7.10
   0   8 -15    9.80    3.00
   0  -8  15   10.10    3.40
   0  -8  15   11.00    2.10
  -1   8 -15   79.29    5.30
   1  -8  15   78.99    6.10
   1  -8  15   79.29    4.20
  -2   8 -15   69.99    5.40
  -2   8 -15   81.29    6.20
   2  -8  15   86.99    6.50
   2  -8  15   76.79    4.00
   2   7 -15    0.60    1.50
   2   7 -15    0.20    2.60
  -2  -7  15    0.80    2.30
  -2  -7  15    0.10    3.40
   1   7 -15   13.30    1.40
   1   7 -15   16.30    2.80
  -1  -7  15   17.00    2.30
  -1  -7  15   18.40    3.30
   0   7 -15   23.50    3.10
   0  -7  15   26.80    3.30
   0  -7  15   22.30    2.20
  -1   7 -15   10.90    2.50
   1  -7  15   12.30    1.70
   1  -7  15   11.50    2.80
  -2   7 -15   -0.30    2.30
  -2   7 -15    0.50    2.40
   2  -7  15    0.90    1.30
   2  -7  15   -0.30    2.50
  -3   7 -15   16.20    3.50
   3  -7  15   19.20    1.90
   3  -7  15   12.20    3.70
   3   6 -15   22.90    3.70
   3   6 -15   21.40    2.40
  -3  -6  15   24.50    4.10
   2   6 -15   16.20    1.70
   2   6 -15   19.50    3.10
  -2  -6  15   12.60    2.20
  -2  -6  15   16.30    3.20
   1   6 -15   77.09    2.80
   1   6 -15   86.19    4.80
  -1  -6  15   84.09    5.30
  -1  -6  15   81.59    3.80
   0   6 -15   -0.20    2.00
   0  -6  15    0.40    2.10
   0  -6  15   -0.10    1.20
  -1   6 -15   12.10    2.50
  -1   6 -15    8.10    2.00
   1  -6  15    9.70    2.40
   1  -6  15   12.70    1.40
  -2   6 -15  117.29    5.80
  -2   6 -15  112.79    5.30
   2  -6  15  113.49    5.90
  -3   6 -15   65.69    4.80
   3  -6  15   77.89    5.00
   3  -6  15   74.99    3.10
  -4   6 -15   37.70    4.50
   4  -6  15   47.00    2.90
   3   5 -15    4.90    2.70
   3   5 -15    4.70    1.60
  -3  -5  15    3.70    2.70
   2   5 -15   53.19    2.60
   2   5 -15   52.89    4.00
  -2  -5  15   53.19    4.60
  -2  -5  15   55.69    3.20
   1   5 -15   45.90    1.80
   1   5 -15   46.10    3.60
  -1  -5  15   47.70    2.70
  -1  -5  15   52.49    4.00
   0   5 -15   41.90    3.10
   0  -5  15   36.50    2.20
   0  -5  15   35.60    3.20
  -1   5 -15   55.89    3.60
  -1   5 -15   56.09    4.00
   1  -5  15   56.09    2.40
   1  -5  15   51.79    4.00
  -2   5 -15   75.29    4.50
  -2   5 -15   73.99    3.90
   2  -5  15   73.99    4.60
   2  -5  15   69.69    2.60
  -3   5 -15   14.90    2.80
   3  -5  15   16.30    1.70
  -4   5 -15   -0.50    2.80
   4  -5  15    0.30    1.20
   4   4 -15   23.70    3.50
   4   4 -15   26.40    2.60
  -4  -4  15   22.00    3.70
   3   4 -15   53.09    4.10
   3   4 -15   58.39    3.00
   3   4 -15   55.09    4.00
  -3  -4  15   56.89    4.70
  -3  -4  15   51.29    3.60
   2   4 -15   14.80    2.20
   2   4 -15   18.30    1.70
  -2  -4  15   19.60    2.80
  -2  -4  15   14.80    1.80
   1   4 -15   12.80    2.10
  -1  -4  15   20.30    2.60
  -1  -4  15   14.90    1.40
   0   4 -15  103.89    4.60
   0  -4  15  109.69    4.70
   0  -4  15  104.89    3.50
  -1   4 -15    1.60    1.50
  -1   4 -15    1.60    1.60
   1  -4  15    1.60    1.70
   1  -4  15    2.30    0.70
  -2   4 -15   39.60    3.10
  -2   4 -15   36.70    3.30
   2  -4  15   39.80    1.60
   2  -4  15   38.40    3.20
  -3   4 -15   14.90    2.40
   3  -4  15   13.40    1.30
  -4   4 -15   78.69    5.30
   4  -4  15   77.99    3.00
   4   3 -15  160.88    7.00
   4   3 -15  159.78    5.80
  -4  -3  15  163.28    7.60
   3   3 -15   31.00    3.30
   3   3 -15   28.20    2.30
   3   3 -15   32.00    3.40
  -3  -3  15   27.10    2.70
  -3  -3  15   34.40    3.80
   2   3 -15    1.60    1.70
   2   3 -15    2.50    0.80
   2   3 -15    2.40    1.50
  -2  -3  15    2.50    1.10
  -2  -3  15    0.90    1.60
   1   3 -15    3.30    1.60
   1   3 -15    3.40    1.40
  -1  -3  15    3.90    1.00
  -1  -3  15    5.90    1.90
   0   3 -15  115.49    4.20
   0  -3  15  118.39    3.60
   0  -3  15  117.19    4.80
  -1   3 -15  116.89    4.90
  -1   3 -15  114.89    4.70
   1  -3  15  118.19    3.40
   1  -3  15  121.39    5.00
  -2   3 -15  143.59    5.60
  -2   3 -15  149.29    5.40
   2  -3  15  148.19    5.70
   2  -3  15  141.49    3.90
  -3   3 -15   79.89    4.40
   3  -3  15   76.39    2.40
  -4   3 -15   12.00    2.80
   4  -3  15   16.60    1.30
   5   2 -15   15.90    2.60
   5   2 -15   18.30    3.90
   4   2 -15   20.60    2.10
   4   2 -15   11.50    2.70
  -4  -2  15   16.90    3.20
   3   2 -15  280.57    9.10
   3   2 -15  285.57    8.20
   3   2 -15  280.47    9.10
  -3  -2  15  293.67    9.50
  -3  -2  15  285.07    8.60
   2   2 -15   39.20    1.80
   2   2 -15   40.20    3.10
   2   2 -15   40.60    2.90
  -2  -2  15   39.40    3.30
  -2  -2  15   40.30    2.30
   1   2 -15   21.70    2.20
   1   2 -15   22.10    2.20
  -1  -2  15   23.30    1.50
  -1  -2  15   25.70    2.60
   0   2 -15   49.20    3.00
   0   2 -15   56.69    2.90
   0  -2  15   50.99    2.80
   0  -2  15   55.19    2.00
  -1   2 -15  295.07    8.90
  -1   2 -15  294.57    8.70
  -1   2 -15  294.17    9.10
   1  -2  15  284.17    7.60
   1  -2  15  306.77    9.10
  -2   2 -15  160.68    5.90
  -2   2 -15  171.18    5.90
  -2   2 -15  167.28    5.80
   2  -2  15  165.08    5.80
   2  -2  15  167.68    6.00
   2  -2  15  171.78    5.90
  -3   2 -15   35.00    3.30
   3  -2  15   31.10    1.30
   4  -2  15   17.70    1.70
   5   1 -15    1.30    3.00
   5   1 -15    1.70    2.10
  -5  -1  15    1.20    3.30
   4   1 -15   48.40    3.70
   4   1 -15   43.10    2.90
  -4  -1  15   40.90    4.30
   3   1 -15   61.99    3.60
   3   1 -15   51.69    3.60
   3   1 -15   57.29    2.60
  -3  -1  15   47.00    3.80
  -3  -1  15   51.79    2.90
  -3  -1  15   54.99    3.40
   2   1 -15  266.77    8.50
   2   1 -15  270.87    8.50
   2   1 -15  269.97    7.50
  -2  -1  15  283.07    8.80
  -2  -1  15  281.47    7.90
  -2  -1  15  274.17    8.50
   1   1 -15    0.40    1.20
   1   1 -15    0.30    1.10
  -1  -1  15    0.10    0.60
  -1  -1  15    0.30    1.10
   0   1 -15   21.00    2.20
   0   1 -15   14.30    1.70
   0  -1  15   18.10    2.00
   0  -1  15   17.00    1.10
   0  -1  15   22.80    2.20
  -1   1 -15   81.99    3.70
  -1   1 -15   85.99    3.70
  -1   1 -15   83.09    3.60
   1  -1  15   84.19    2.30
   1  -1  15   81.69    3.70
   1  -1  15   90.19    3.70
  -2   1 -15   89.69    3.90
  -2   1 -15   92.99    4.20
  -2   1 -15   87.59    3.90
   2  -1  15   94.49    4.10
   2  -1  15   93.49    4.30
   2  -1  15   87.29    3.90
   3  -1  15  182.38    5.00
   3  -1  15  178.48    6.80
   4  -1  15   40.00    4.60
   4  -1  15   37.10    2.10
   5   0 -15  113.69    5.00
   5   0 -15  107.09    6.30
  -5   0  15  113.99    6.70
   4   0 -15    6.80    2.50
   4   0 -15    8.70    1.60
  -4   0  15    9.90    2.60
   3   0 -15   -0.30    1.60
   3   0 -15    0.50    1.50
   3   0 -15    0.20    1.00
  -3   0  15    0.30    1.50
  -3   0  15   -0.30    1.60
  -3   0  15    0.10    1.10
   2   0 -15   26.70    2.50
   2   0 -15   26.60    1.40
   2   0 -15   30.00    2.70
  -2   0  15   29.30    2.50
  -2   0  15   22.30    1.80
  -2   0  15   25.20    2.50
   1   0 -15  252.97    8.10
   1   0 -15  266.47    8.20
  -1   0  15  260.17    8.20
  -1   0  15  264.87    7.30
  -1   0  15  267.17    8.00
   0   0 -15  227.48    7.20
   0   0 -15  232.48    7.20
   0   0  15  229.28    6.20
   0   0  15  221.68    6.90
   0   0  15  222.78    7.10
  -1   0 -15    0.00    1.30
  -1   0 -15    0.40    1.30
   1   0  15   -0.50    1.20
   1   0  15    0.20    0.40
  -2   0 -15   38.20    3.20
   2   0  15   51.89    3.00
   2   0  15   45.60    1.60
   2   0  15   48.90    3.40
   3   0  15  536.65   15.90
   3   0  15  544.55   14.10
   4   0  15   23.90    3.60
   4   0  15   25.30    2.20
   5  -1 -15    0.60    2.00
   5  -1 -15    0.00    2.50
  -5   1  15    0.90    3.00
   4  -1 -15   28.20    2.50
   4  -1 -15   29.90    3.60
  -4   1  15   30.90    3.20
   3  -1 -15   22.10    2.50
   3  -1 -15   21.30    1.80
  -3   1  15   18.90    2.20
  -3   1  15   20.00    2.10
  -3   1  15   20.40    2.40
   2  -1 -15   42.30    2.90
   2  -1 -15   38.10    2.70
   2  -1 -15   39.30    1.80
  -2   1  15   40.90    2.10
  -2   1  15   40.20    2.70
  -2   1  15   40.00    2.80
   1  -1 -15  172.78    5.90
   1  -1 -15  170.88    5.80
  -1   1  15  156.88    4.90
  -1   1  15  161.78    5.50
  -1   1  15  166.38    5.80
   0  -1 -15  319.07    9.60
   0   1  15  321.67    8.50
   0   1  15  310.77    9.50
  -1  -1 -15    0.30    1.40
   1   1  15    0.40    0.50
   1   1  15    0.10    1.30
  -2  -1 -15   25.70    3.00
   2   1  15   23.00    2.70
   2   1  15   26.40    1.40
   2   1  15   31.70    3.20
   3   1  15    2.40    1.00
   3   1  15    3.00    2.40
   4   1  15    2.40    1.40
   4   1  15    2.80    3.20
   5  -2 -15    5.90    2.10
   5  -2 -15    5.60    2.90
  -5   2  15    6.90    3.20
   4  -2 -15   12.10    2.50
   4  -2 -15   16.90    1.90
  -4   2  15   14.20    2.70
  -4   2  15   14.30    2.30
   3  -2 -15   48.60    2.50
   3  -2 -15   49.30    3.50
  -3   2  15   50.29    3.30
  -3   2  15   47.70    2.70
  -3   2  15   48.40    3.10
   2  -2 -15   15.10    1.90
   2  -2 -15   12.30    1.30
  -2   2  15   14.90    2.00
  -2   2  15   15.00    1.40
   1  -2 -15   44.60    2.90
   1  -2 -15   53.49    1.50
   1  -2 -15   45.90    1.40
  -1   2  15   47.30    2.80
  -1   2  15   48.30    2.20
   0  -2 -15   16.70    2.00
   0   2  15   18.50    1.40
   0   2  15   18.70    2.10
  -1  -2 -15   84.59    4.10
   1   2  15   95.59    4.10
   1   2  15   89.39    3.00
  -2  -2 -15   26.70    3.00
   2   2  15   32.40    1.80
   2   2  15   33.70    3.20
   3   2  15   21.30    3.30
   3   2  15   20.80    2.10
   4   2  15   92.29    4.50
   4   2  15   94.19    6.80
   5  -3 -15    0.40    2.90
   5  -3 -15    2.90    2.10
  -5   3  15    0.20    2.90
   4  -3 -15   40.80    4.00
   4  -3 -15   38.50    2.90
  -4   3  15   41.70    3.80
  -4   3  15   37.40    3.50
   3  -3 -15   67.69    3.90
   3  -3 -15   63.39    3.00
  -3   3  15   70.09    3.90
  -3   3  15   72.39    3.30
   2  -3 -15   10.60    1.10
   2  -3 -15    6.20    1.70
  -2   3  15    5.70    1.60
  -2   3  15    7.80    1.30
   1  -3 -15  470.85   12.10
   1  -3 -15  468.05   13.60
  -1   3  15  453.45   13.50
  -1   3  15  469.45   12.60
   0  -3 -15  178.98    6.50
   0   3  15  189.48    6.50
   0   3  15  180.68    5.50
  -1  -3 -15   20.10    2.50
   1   3  15   25.00    2.80
   1   3  15   25.30    1.80
  -2  -3 -15    1.00    1.90
   2   3  15   -0.10    1.00
   2   3  15    0.10    2.00
   3   3  15   76.99    5.20
   3   3  15   82.29    3.70
   5  -4 -15    5.30    2.30
   5  -4 -15   10.30    3.40
   4  -4 -15   23.20    2.30
   4  -4 -15   24.60    3.20
  -4   4  15   24.90    2.90
   3  -4 -15    1.80    1.20
   3  -4 -15    1.80    2.00
  -3   4  15    1.30    1.80
  -3   4  15    3.30    1.50
   2  -4 -15   82.19    4.30
   2  -4 -15   85.19    3.20
  -2   4  15   78.59    4.00
  -2   4  15   90.89    3.60
   1  -4 -15   45.30    3.20
   1  -4 -15   49.99    2.00
  -1   4  15   47.50    2.60
  -1   4  15   50.69    3.20
   0  -4 -15   43.20    3.60
   0   4  15   41.40    3.10
   0   4  15   46.10    2.40
  -1  -4 -15   95.99    5.10
   1   4  15   95.59    3.70
   1   4  15   98.49    5.30
   1   4  15   97.29    4.70
  -2  -4 -15   63.19    4.60
   2   4  15   46.50    4.30
   2   4  15   52.99    3.10
   3   4  15   21.40    3.80
   3   4  15   19.30    2.20
   4  -5 -15  170.48    6.10
   4  -5 -15  165.48    7.30
  -4   5  15  166.68    6.90
   3  -5 -15   40.60    2.80
   3  -5 -15   37.60    3.40
  -3   5  15   39.10    3.90
  -3   5  15   38.40    3.30
   2  -5 -15   71.59    4.30
   2  -5 -15   71.89    3.10
  -2   5  15   71.69    4.20
  -2   5  15   80.69    3.70
   1  -5 -15   92.69    3.20
   1  -5 -15   92.59    4.90
  -1   5  15   94.99    3.90
  -1   5  15   90.99    4.40
   0  -5 -15  226.98    6.10
   0  -5 -15  210.58    7.90
   0   5  15  222.98    6.90
   0   5  15  230.78    7.80
  -1  -5 -15  309.27   10.50
   1   5  15  308.07   10.00
   1   5  15  302.87   10.40
   1   5  15  293.47    9.00
  -2  -5 -15   10.50    3.40
   2   5  15    9.00    2.00
   2   5  15    8.30    3.40
   4  -6 -15    0.90    2.80
   4  -6 -15    1.40    2.10
  -4   6  15    0.20    2.70
   3  -6 -15   53.39    3.40
   3  -6 -15   59.39    4.60
  -3   6  15   56.29    4.50
   2  -6 -15    6.50    2.50
   2  -6 -15    4.90    1.40
  -2   6  15    5.70    1.80
  -2   6  15    6.40    2.50
   1  -6 -15    8.70    1.40
   1  -6 -15    6.00    2.20
  -1   6  15    8.30    1.90
  -1   6  15    7.90    2.30
   0  -6 -15   11.80    1.20
   0  -6 -15   15.20    3.00
   0   6  15   16.20    2.10
   0   6  15   13.50    2.60
  -1  -6 -15  148.29    7.30
   1   6  15  153.18    7.30
   1   6  15  146.09    5.70
   1   6  15  145.29    6.70
   3  -7 -15   22.60    2.50
  -3   7  15   24.90    3.70
   2  -7 -15  187.18    6.30
   2  -7 -15  190.28    7.80
  -2   7  15  187.08    7.60
   1  -7 -15   47.00    4.70
   1  -7 -15   40.50    2.90
  -1   7  15   45.60    4.30
  -1   7  15   45.20    4.00
   0  -7 -15    2.10    1.30
   0  -7 -15    1.20    2.80
   0   7  15    1.20    2.80
   0   7  15    1.70    2.10
   0   7  15    2.70    2.60
   1   7  15   10.50    3.60
   1   7  15   10.20    2.60
   0   8 -16   12.20    3.10
   0  -8  16   10.30    3.40
   0  -8  16    8.90    2.20
  -1   8 -16    0.50    2.90
   1  -8  16    1.50    3.40
   1  -8  16   -0.10    1.80
  -2   8 -16   12.10    3.30
   2   7 -16  109.99    6.50
  -2  -7  16  111.59    5.70
   1   7 -16   53.19    2.20
   1   7 -16   51.19    4.90
  -1  -7  16   52.99    3.80
  -1  -7  16   47.60    4.80
   0   7 -16   33.40    3.80
   0  -7  16   30.50    3.00
   0  -7  16   39.10    4.20
  -1   7 -16   44.40    4.30
   1  -7  16   42.20    4.50
   1  -7  16   50.29    3.10
  -2   7 -16   41.90    4.40
  -2   7 -16   42.90    4.50
   2  -7  16   42.00    2.90
   2  -7  16   50.79    4.80
  -3   7 -16   41.20    4.60
   3  -7  16   38.90    2.90
   3  -7  16   39.60    4.90
   3   6 -16  142.09    7.30
   2   6 -16   58.69    2.90
   2   6 -16   58.59    4.90
  -2  -6  16   60.59    4.00
  -2  -6  16   58.89    5.50
   1   6 -16    4.90    0.70
   1   6 -16    4.80    2.20
  -1  -6  16    5.70    1.60
  -1  -6  16    6.00    2.60
   0   6 -16   33.30    3.70
   0  -6  16   37.50    2.70
   0  -6  16   44.10    3.80
  -1   6 -16   81.69    4.40
   1  -6  16   84.09    4.90
   1  -6  16   78.29    3.30
  -2   6 -16    4.50    2.60
  -2   6 -16    6.20    2.50
   2  -6  16    4.30    2.80
   2  -6  16    5.10    1.20
  -3   6 -16   36.00    4.10
   3  -6  16   42.10    5.10
   3  -6  16   37.20    2.50
   3   5 -16    6.50    1.70
   3   5 -16    3.00    2.50
  -3  -5  16    4.00    2.90
   2   5 -16   11.20    1.30
   2   5 -16   14.20    2.70
  -2  -5  16   11.30    1.90
  -2  -5  16   11.60    2.80
   1   5 -16   16.90    2.40
  -1  -5  16   19.30    2.80
  -1  -5  16   20.00    1.80
   0   5 -16   58.99    3.90
   0  -5  16   62.99    2.80
   0  -5  16   66.59    4.20
  -1   5 -16    4.30    1.80
  -1   5 -16    1.80    1.90
   1  -5  16    4.80    2.10
   1  -5  16    2.40    0.90
  -2   5 -16   17.60    2.40
  -2   5 -16   17.30    2.80
   2  -5  16   24.40    3.10
  -3   5 -16  131.29    6.10
   3  -5  16  139.19    6.30
   3  -5  16  131.09    4.10
  -4   5 -16   35.90    4.40
   4  -5  16   40.50    2.50
   4   4 -16   58.29    5.60
   4   4 -16   61.59    4.40
   3   4 -16   31.30    3.30
   3   4 -16   31.40    2.60
  -3  -4  16   26.40    2.60
  -3  -4  16   25.80    3.60
   2   4 -16   73.59    4.20
   2   4 -16   80.09    2.90
  -2  -4  16   78.59    3.60
  -2  -4  16   83.69    4.60
   1   4 -16   12.70    2.20
  -1  -4  16   13.90    1.50
  -1  -4  16   10.90    2.20
   0   4 -16   -0.10    1.50
   0  -4  16    0.50    0.80
   0  -4  16    1.30    1.60
  -1   4 -16   44.50    3.40
  -1   4 -16   44.80    3.60
   1  -4  16   49.80    2.00
   1  -4  16   53.29    3.50
  -2   4 -16   27.40    3.00
  -2   4 -16   21.30    2.50
   2  -4  16   29.50    3.50
   2  -4  16   22.50    1.30
  -3   4 -16   44.50    4.10
   3  -4  16   45.10    1.90
  -4   4 -16    0.10    2.80
   4  -4  16    0.40    1.10
   4   3 -16   55.29    4.90
   4   3 -16   61.69    3.60
  -4  -3  16   48.50    4.90
   3   3 -16   47.50    3.80
   3   3 -16   42.00    2.60
   3   3 -16   52.89    4.00
  -3  -3  16   48.30    3.30
  -3  -3  16   44.50    3.90
   2   3 -16   71.39    3.90
   2   3 -16   72.19    2.60
   2   3 -16   74.89    3.90
  -2  -3  16   74.99    3.30
  -2  -3  16   69.49    4.40
   1   3 -16    6.40    1.80
   1   3 -16    4.90    1.50
  -1  -3  16    5.60    1.10
  -1  -3  16    2.10    1.70
   0   3 -16  102.79    4.50
   0   3 -16  102.29    5.50
   0  -3  16  111.69    3.40
   0  -3  16  111.29    4.70
  -1   3 -16  271.47    8.80
  -1   3 -16  266.97    8.70
   1  -3  16  272.87    7.30
   1  -3  16  283.37    8.80
  -2   3 -16   18.40    2.30
  -2   3 -16   17.40    2.40
   2  -3  16   14.00    0.90
   2  -3  16   19.20    2.50
  -3   3 -16    2.60    2.10
   3  -3  16    2.30    0.70
  -4   3 -16   24.90    3.40
   4  -3  16   26.10    1.80
   4   2 -16    9.20    2.80
   4   2 -16    8.90    1.80
  -4  -2  16    9.80    2.80
   3   2 -16   94.19    4.70
   3   2 -16   95.69    3.50
   3   2 -16   90.59    4.40
  -3  -2  16   90.29    5.10
  -3  -2  16   99.89    4.10
   2   2 -16   71.59    2.50
   2   2 -16   76.19    4.00
   2   2 -16   69.29    3.70
  -2  -2  16   68.59    3.90
  -2  -2  16   77.69    3.10
   1   2 -16    3.20    1.60
   1   2 -16    3.30    1.40
  -1  -2  16    2.80    0.90
  -1  -2  16    2.40    1.50
   0   2 -16    3.90    1.40
   0   2 -16    1.30    1.30
   0  -2  16    1.70    0.70
   0  -2  16    2.00    1.50
  -1   2 -16  424.06   12.70
  -1   2 -16  455.95   12.60
  -1   2 -16  435.96   12.90
   1  -2  16  437.06   11.40
   1  -2  16  456.65   12.90
  -2   2 -16   42.30    3.10
  -2   2 -16   38.30    3.10
  -2   2 -16   39.00    3.20
   2  -2  16   41.80    2.90
   2  -2  16   41.60    3.30
   2  -2  16   43.10    3.30
  -3   2 -16   14.30    2.60
   3  -2  16   13.50    1.00
   4  -2  16   29.80    1.90
   5   1 -16   83.59    4.60
   4   1 -16    1.70    2.40
   4   1 -16    2.10    1.50
  -4  -1  16    1.90    2.60
   3   1 -16   29.90    3.20
   3   1 -16   33.50    2.10
   3   1 -16   27.30    3.10
  -3  -1  16   27.70    3.00
  -3  -1  16   31.00    2.50
  -3  -1  16   29.50    3.10
   2   1 -16  226.08    7.60
   2   1 -16  220.58    6.20
   2   1 -16  233.88    7.70
  -2  -1  16  234.68    7.70
  -2  -1  16  227.78    7.60
  -2  -1  16  226.68    6.70
   1   1 -16    4.20    1.60
   1   1 -16    3.60    1.50
  -1  -1  16    3.50    0.90
  -1  -1  16    4.20    1.50
  -1  -1  16    3.90    1.60
   0   1 -16    0.40    1.30
   0   1 -16    0.70    1.20
   0  -1  16    0.50    1.30
   0  -1  16    0.50    0.60
   0  -1  16    0.00    1.20
  -1   1 -16   53.89    3.20
  -1   1 -16   54.99    3.20
   1  -1  16   55.69    3.20
   1  -1  16   57.09    3.20
   1  -1  16   54.99    1.70
  -2   1 -16  648.84   18.30
  -2   1 -16  651.43   18.00
   2  -1  16  682.33   18.40
   2  -1  16  637.14   18.00
   3  -1  16  230.48    8.20
   3  -1  16  228.58    6.20
   4  -1  16    1.00    2.90
   4  -1  16    1.80    1.10
   5   0 -16   72.39    4.40
   5   0 -16   71.39    5.70
  -5   0  16   68.59    5.90
   4   0 -16   40.50    2.80
   4   0 -16   30.70    3.50
  -4   0  16   33.60    3.70
   3   0 -16  181.68    5.50
   3   0 -16  178.08    6.70
   3   0 -16  175.18    6.50
  -3   0  16  184.78    5.90
  -3   0  16  176.08    6.50
  -3   0  16  179.08    6.80
   2   0 -16   26.50    2.60
   2   0 -16   29.20    1.50
   2   0 -16   23.10    2.60
  -2   0  16   29.90    2.70
  -2   0  16   31.00    2.00
  -2   0  16   34.40    2.90
   1   0 -16  229.48    7.30
   1   0 -16  227.08    7.40
  -1   0  16  224.28    6.40
  -1   0  16  226.98    7.30
  -1   0  16  224.08    7.20
   0   0 -16  101.39    4.20
   0   0 -16   88.69    4.10
   0   0  16   95.09    3.00
   0   0  16  105.09    4.30
   0   0  16   94.49    3.80
  -1   0 -16    1.20    1.50
  -1   0 -16    3.70    1.60
   1   0  16    2.30    1.40
   1   0  16    3.20    0.60
  -2   0 -16   21.60    2.60
   2   0  16   26.20    2.90
   2   0  16   25.70    1.20
   2   0  16   24.70    2.70
  -3   0 -16  137.49    5.90
   3   0  16  131.79    5.90
   3   0  16  139.49    4.10
   4   0  16    6.20    1.40
   4   0  16    3.70    3.10
   5  -1 -16    6.60    3.20
   5  -1 -16    6.20    2.20
  -5   1  16    3.50    3.30
   4  -1 -16  196.38    6.20
   4  -1 -16  179.18    7.40
  -4   1  16  182.98    7.30
   3  -1 -16  104.79    4.80
   3  -1 -16  108.39    3.70
  -3   1  16  105.59    4.10
  -3   1  16   97.19    4.70
  -3   1  16  114.19    5.00
   2  -1 -16    0.40    0.70
   2  -1 -16    0.30    1.60
   2  -1 -16   -0.60    1.50
  -2   1  16    0.40    0.90
  -2   1  16    0.80    1.50
  -2   1  16    0.00    1.50
   1  -1 -16    7.70    1.60
  -1   1  16    9.90    1.00
  -1   1  16    9.80    1.70
   0  -1 -16    0.30    1.30
   0   1  16    0.60    0.60
   0   1  16    0.90    1.40
  -1  -1 -16   15.60    2.20
   1   1  16   16.90    2.10
   1   1  16   18.30    1.20
  -2  -1 -16    7.60    2.10
   2   1  16    8.20    0.90
   2   1  16    7.60    2.20
   3   1  16   46.10    4.50
   3   1  16   45.60    2.30
   4   1  16  503.75   15.70
   4   1  16  468.25   13.20
   5  -2 -16    0.20    2.70
   5  -2 -16   -1.00    2.00
  -5   2  16    0.90    3.20
   4  -2 -16   11.30    1.70
   4  -2 -16    9.50    2.50
  -4   2  16   17.00    2.60
  -4   2  16   11.50    2.70
   3  -2 -16   30.00    3.00
   3  -2 -16   30.10    2.10
  -3   2  16   24.30    2.90
  -3   2  16   29.80    2.60
  -3   2  16   26.00    3.00
   2  -2 -16  144.49    5.60
   2  -2 -16  147.29    4.30
  -2   2  16  143.99    5.50
  -2   2  16  147.49    4.80
   1  -2 -16  273.17    9.10
  -1   2  16  302.67    9.10
  -1   2  16  296.27    8.20
   0  -2 -16   70.59    3.70
   0   2  16   72.19    3.60
   0   2  16   78.49    2.70
  -1  -2 -16   -0.30    1.70
   1   2  16    0.10    1.50
   1   2  16    0.30    0.80
  -2  -2 -16   37.70    3.80
   2   2  16   34.40    2.00
   2   2  16   38.60    3.90
   3   2  16    5.40    3.00
   3   2  16    4.10    1.30
   5  -3 -16    1.40    2.70
   5  -3 -16    1.60    2.20
  -5   3  16    2.00    3.20
   4  -3 -16   27.70    2.80
   4  -3 -16   30.10    3.30
  -4   3  16   30.30    3.10
   3  -3 -16   21.30    2.80
   3  -3 -16   20.70    2.00
  -3   3  16   20.00    2.00
  -3   3  16   19.70    2.50
   2  -3 -16   78.69    4.20
   2  -3 -16   72.89    2.70
  -2   3  16   75.49    3.80
  -2   3  16   70.79    3.20
   1  -3 -16  236.98    6.20
   1  -3 -16  244.78    8.00
  -1   3  16  247.28    8.00
  -1   3  16  229.38    6.90
   0  -3 -16    4.60    1.70
   0   3  16    5.60    1.70
   0   3  16    6.20    1.10
  -1  -3 -16   13.60    2.30
   1   3  16   18.00    2.30
   1   3  16   18.40    1.80
  -2  -3 -16   24.00    3.30
   2   3  16   28.40    2.20
   2   3  16   29.20    3.50
   3   3  16   11.60    3.50
   3   3  16   13.30    1.90
   5  -4 -16   35.10    6.40
   5  -4 -16   42.50    4.20
   4  -4 -16   44.20    4.60
   4  -4 -16   43.10    3.30
  -4   4  16   39.50    4.10
   3  -4 -16   25.70    3.10
   3  -4 -16   24.60    2.30
  -3   4  16   27.10    2.40
  -3   4  16   26.40    2.90
   2  -4 -16    1.20    1.00
   2  -4 -16    1.80    1.90
  -2   4  16    1.60    1.60
  -2   4  16    2.10    1.30
   1  -4 -16    0.20    0.70
   1  -4 -16    0.40    1.70
  -1   4  16    1.10    1.60
  -1   4  16    0.00    1.10
   0  -4 -16  204.78    7.60
   0   4  16  216.88    6.50
   0   4  16  214.48    7.40
  -1  -4 -16   48.80    4.30
   1   4  16   43.90    3.60
   1   4  16   50.59    2.80
   1   4  16   47.40    4.50
  -2  -4 -16    0.40    2.80
   2   4  16    1.30    1.50
   2   4  16    0.70    2.90
   4  -5 -16    3.50    2.60
   4  -5 -16    2.00    1.90
  -4   5  16    3.90    2.70
   3  -5 -16    1.40    1.50
   3  -5 -16    1.50    2.30
  -3   5  16    1.30    1.90
  -3   5  16    0.60    2.20
   2  -5 -16   99.59    3.70
   2  -5 -16  101.79    5.30
  -2   5  16  102.39    5.20
  -2   5  16  102.69    4.40
   1  -5 -16  274.77    7.80
   1  -5 -16  288.87    9.50
  -1   5  16  284.67    9.40
  -1   5  16  284.87    8.50
   0  -5 -16   55.69    4.50
   0   5  16   55.39    3.80
   0   5  16   59.69    3.20
  -1  -5 -16    5.70    2.90
   1   5  16    6.10    2.60
   1   5  16    8.60    3.00
   1   5  16    6.30    1.70
  -2  -5 -16   54.29    5.30
   2   5  16   52.29    5.20
   2   5  16   58.39    3.80
   4  -6 -16    8.40    3.40
   4  -6 -16    6.40    2.20
  -4   6  16    7.10    3.00
   3  -6 -16  206.28    6.80
   3  -6 -16  203.58    8.10
  -3   6  16  197.78    8.00
   2  -6 -16   82.79    5.40
   2  -6 -16   80.99    3.60
  -2   6  16   96.89    4.50
  -2   6  16   83.09    4.90
   1  -6 -16   39.00    2.40
   1  -6 -16   39.60    4.00
  -1   6  16   39.30    3.30
  -1   6  16   40.70    4.20
   0  -6 -16   11.90    1.10
   0  -6 -16   15.60    3.30
   0   6  16   11.60    2.10
   0   6  16   18.30    3.20
  -1  -6 -16   36.60    4.30
   1   6  16   36.00    4.00
   1   6  16   39.50    4.30
   1   6  16   35.20    3.70
   3  -7 -16    1.10    3.50
  -3   7  16   -0.10    2.60
   2  -7 -16    6.50    3.00
   2  -7 -16    7.10    1.80
  -2   7  16    6.70    3.10
   1  -7 -16   35.00    4.10
   1  -7 -16   33.00    2.70
  -1   7  16   38.50    3.20
  -1   7  16   42.20    4.40
   0  -7 -16   45.80    2.50
   0  -7 -16   55.09    5.80
   0   7  16   47.90    5.40
   0   7  16   46.00    4.40
   0   7  16   40.50    4.60
   1   7 -17    1.10    3.00
  -1  -7  17    1.50    3.40
  -1  -7  17    1.60    2.00
   0   7 -17  142.59    6.90
   0  -7  17  147.79    6.90
   0  -7  17  141.59    5.30
  -1   7 -17   -1.10    2.60
   1  -7  17   -0.70    3.10
   1  -7  17   -0.40    1.50
  -2   7 -17   14.70    3.20
  -2   7 -17   16.30    3.70
   2  -7  17   16.60    1.90
   2  -7  17   19.60    4.10
   2   6 -17    0.50    1.20
   2   6 -17    1.20    2.90
  -2  -6  17    0.80    2.00
  -2  -6  17    0.20    3.00
   1   6 -17   33.10    3.60
  -1  -6  17   31.90    2.90
  -1  -6  17   36.70    4.10
   0   6 -17    8.20    2.60
   0  -6  17    5.50    2.50
   0  -6  17    6.30    1.50
  -1   6 -17   24.70    3.20
   1  -6  17   26.40    3.40
   1  -6  17   26.60    2.30
  -2   6 -17   44.50    4.70
  -2   6 -17   43.70    4.30
   2  -6  17   46.10    2.60
   2  -6  17   45.70    5.00
  -3   6 -17   42.00    5.10
   3  -6  17   46.60    5.60
   3  -6  17   48.60    2.70
   3   5 -17   48.80    3.20
   3   5 -17   51.39    5.00
  -3  -5  17   50.79    4.80
  -3  -5  17   51.99    5.70
   2   5 -17  343.87    9.50
   2   5 -17  359.26   11.50
  -2  -5  17  335.97   10.40
  -2  -5  17  373.56   12.10
   1   5 -17   35.90    3.40
  -1  -5  17   29.20    2.60
  -1  -5  17   37.70    4.20
   0   5 -17   27.80    3.10
   0  -5  17   32.30    2.30
   0  -5  17   34.70    3.70
  -1   5 -17   19.10    2.70
   1  -5  17   22.10    1.90
   1  -5  17   27.00    3.30
  -2   5 -17   34.90    4.00
  -2   5 -17   31.30    3.60
   2  -5  17   37.60    2.00
   2  -5  17   42.00    3.90
  -3   5 -17    0.00    2.60
   3  -5  17    1.40    2.90
   3  -5  17    1.50    1.00
   3   4 -17   31.90    2.60
   3   4 -17   34.80    3.80
  -3  -4  17   34.80    4.10
  -3  -4  17   35.20    3.50
   2   4 -17    1.70    0.90
   2   4 -17    4.50    2.20
  -2  -4  17    1.20    2.20
  -2  -4  17    2.50    1.40
   1   4 -17   63.09    4.00
  -1  -4  17   62.29    2.90
  -1  -4  17   58.99    4.00
   0   4 -17  138.99    5.70
   0  -4  17  134.69    4.30
   0  -4  17  135.39    5.70
  -1   4 -17   20.00    2.50
   1  -4  17   17.00    2.70
   1  -4  17   19.90    1.50
  -2   4 -17    7.90    2.30
  -2   4 -17    8.20    2.30
   2  -4  17    7.50    2.50
  -3   4 -17   16.70    3.10
   3  -4  17   15.20    3.10
   3  -4  17   13.80    1.40
  -4   4 -17   21.50    3.60
   4  -4  17   23.60    2.10
   4   3 -17    0.00    2.90
   4   3 -17    0.80    1.80
  -4  -3  17    1.70    3.40
   3   3 -17    0.00    1.20
   3   3 -17   -0.50    2.20
   3   3 -17    1.20    2.20
  -3  -3  17   -0.10    1.70
  -3  -3  17    3.50    2.70
   2   3 -17   52.39    3.60
   2   3 -17   51.09    3.90
   2   3 -17   52.99    2.10
  -2  -3  17   56.19    3.00
  -2  -3  17   51.69    4.20
   1   3 -17   79.79    4.30
   1   3 -17   84.39    4.00
  -1  -3  17   88.29    4.40
  -1  -3  17   83.49    3.20
   0   3 -17   23.30    2.60
   0  -3  17   21.90    2.50
   0  -3  17   21.50    1.50
  -1   3 -17   -0.50    1.70
   1  -3  17    0.90    1.90
   1  -3  17    0.50    0.60
  -2   3 -17   73.19    4.30
  -2   3 -17   71.79    4.00
   2  -3  17   67.09    4.00
  -3   3 -17    8.80    2.60
   3  -3  17    6.90    0.70
   3  -3  17    5.90    2.50
   4  -3  17   17.10    1.80
   4   2 -17    2.30    2.80
   4   2 -17    0.80    1.60
  -4  -2  17    2.10    2.90
   3   2 -17  257.27    9.00
   3   2 -17  263.17    7.70
   3   2 -17  272.37    9.00
  -3  -2  17  259.27    8.20
  -3  -2  17  278.87    9.50
   2   2 -17   43.40    1.70
   2   2 -17   44.40    3.20
   2   2 -17   48.50    3.30
  -2  -2  17   39.70    2.50
  -2  -2  17   47.10    3.50
   1   2 -17    0.40    1.50
   1   2 -17    0.80    1.50
  -1  -2  17    0.60    1.50
  -1  -2  17    0.80    0.80
   0   2 -17   26.00    2.70
   0   2 -17   26.20    2.80
   0  -2  17   29.50    1.50
   0  -2  17   28.70    2.80
  -1   2 -17   47.40    3.30
  -1   2 -17   56.99    3.40
   1  -2  17   59.99    3.60
   1  -2  17   53.09    1.80
  -2   2 -17  301.57   10.30
  -2   2 -17  308.27    9.80
  -2   2 -17  311.37    9.70
   2  -2  17  325.97    9.80
   2  -2  17  317.17    9.90
   4  -2  17    2.10    1.00
   4   1 -17   58.49    3.40
   4   1 -17   51.29    4.70
  -4  -1  17   58.19    5.00
   3   1 -17    8.70    1.30
   3   1 -17   11.40    2.10
   3   1 -17    9.10    2.20
  -3  -1  17   13.30    2.40
  -3  -1  17   12.40    1.70
  -3  -1  17   11.30    2.10
   2   1 -17   -0.10    0.60
   2   1 -17    0.30    1.40
   2   1 -17   -0.20    1.70
  -2  -1  17    0.20    1.00
  -2  -1  17    1.60    1.90
  -2  -1  17    0.80    1.60
   1   1 -17    1.10    1.40
   1   1 -17    1.00    1.30
  -1  -1  17    0.60    0.80
  -1  -1  17    0.30    1.50
  -1  -1  17   -0.20    1.30
   0   1 -17   26.50    2.60
   0   1 -17   32.00    2.80
   0  -1  17   30.10    1.50
   0  -1  17   30.60    2.70
   0  -1  17   30.70    2.70
  -1   1 -17   55.29    3.40
  -1   1 -17   58.29    3.40
   1  -1  17   56.99    1.80
   1  -1  17   61.09    4.60
   1  -1  17   59.99    3.50
  -2   1 -17  186.58    6.80
  -2   1 -17  176.58    6.50
   2  -1  17  179.48    6.70
   2  -1  17  188.48    6.50
   3  -1  17    1.70    2.30
   3  -1  17    0.40    0.70
   4  -1  17   43.40    2.40
   4   0 -17   81.09    5.30
   4   0 -17   92.49    4.10
  -4   0  17  104.69    5.80
   3   0 -17    7.40    2.10
   3   0 -17    4.00    1.80
   3   0 -17    6.00    1.10
  -3   0  17    6.20    1.50
  -3   0  17    7.30    2.30
  -3   0  17    6.60    2.00
   2   0 -17    9.60    0.80
   2   0 -17    6.00    1.70
   2   0 -17    5.80    1.70
  -2   0  17   10.70    1.30
  -2   0  17    5.70    1.70
  -2   0  17    8.50    1.90
   1   0 -17  217.68    7.50
   1   0 -17  219.38    7.50
  -1   0  17  239.78    7.40
  -1   0  17  237.68    7.60
  -1   0  17  223.38    6.50
   0   0 -17   14.60    2.00
   0   0 -17   17.40    2.00
   0   0  17   17.60    1.30
   0   0  17   15.60    2.00
  -1   0 -17    7.70    1.70
  -1   0 -17   13.70    2.10
   1   0  17    9.00    1.70
   1   0  17   10.00    1.00
  -2   0 -17    0.90    1.70
   2   0  17    1.20    1.80
   2   0  17    1.10    2.70
   2   0  17    1.60    0.60
  -3   0 -17  149.49    6.70
   3   0  17  146.59    6.70
   3   0  17  155.28    4.50
   4   0  17  322.77    9.20
   4   0  17  342.87   11.90
   5  -1 -17    6.20    2.30
  -5   1  17    8.30    3.60
   4  -1 -17  172.28    7.30
   4  -1 -17  175.98    6.00
  -4   1  17  196.88    7.50
  -4   1  17  176.18    7.00
   3  -1 -17   15.80    1.50
   3  -1 -17   12.90    2.30
  -3   1  17   18.30    2.60
  -3   1  17   10.80    2.00
  -3   1  17   14.20    1.80
   2  -1 -17   60.89    3.70
   2  -1 -17   52.99    2.00
   2  -1 -17   57.19    3.40
  -2   1  17   50.59    2.60
  -2   1  17   62.99    3.70
  -2   1  17   58.29    3.40
   1  -1 -17   -0.70    1.50
  -1   1  17    1.20    0.80
  -1   1  17   -0.30    1.50
   0  -1 -17    5.90    1.80
   0   1  17    7.40    0.90
   0   1  17    4.40    1.50
  -1  -1 -17   80.99    4.30
   1   1  17   82.39    4.10
   1   1  17   80.19    2.70
  -2  -1 -17    2.90    1.90
   2   1  17    3.60    0.80
   2   1  17    4.00    2.00
  -3  -1 -17   -0.60    2.40
   3   1  17   -0.70    2.60
   3   1  17    0.70    1.00
   5  -2 -17   16.30    2.80
  -5   2  17   17.30    3.60
   4  -2 -17    5.40    1.60
   4  -2 -17    4.80    2.40
  -4   2  17    3.70    2.50
  -4   2  17    3.70    2.30
   3  -2 -17  115.39    5.20
   3  -2 -17  106.69    3.90
  -3   2  17  108.79    4.40
  -3   2  17  113.89    5.10
   2  -2 -17  121.69    5.30
   2  -2 -17  118.09    3.60
  -2   2  17  121.49    5.20
  -2   2  17  119.79    4.30
   1  -2 -17   46.40    3.20
  -1   2  17   48.70    3.30
  -1   2  17   45.00    2.30
   0  -2 -17    1.20    1.80
   0   2  17    1.70    1.70
   0   2  17    1.30    0.80
  -1  -2 -17  128.19    5.60
   1   2  17  136.59    4.20
   1   2  17  141.69    5.40
  -2  -2 -17    0.50    2.10
   2   2  17    2.60    2.20
   2   2  17    1.70    1.00
   3   2  17   36.70    2.60
   3   2  17   44.30    5.20
   4  -3 -17   33.80    3.80
   4  -3 -17   36.40    3.00
  -4   3  17   41.30    4.00
   3  -3 -17    4.00    2.30
   3  -3 -17    2.40    1.20
  -3   3  17    3.20    1.80
  -3   3  17    2.80    1.60
   2  -3 -17   49.30    2.20
   2  -3 -17   49.99    3.50
  -2   3  17   56.09    2.90
  -2   3  17   47.40    3.40
   1  -3 -17    7.80    2.10
  -1   3  17    7.90    1.30
  -1   3  17    8.10    2.00
   0  -3 -17    3.20    2.00
   0   3  17    3.10    1.10
   0   3  17    2.90    1.70
  -1  -3 -17    0.80    2.20
   1   3  17   -0.10    1.00
   1   3  17   -0.20    1.90
  -2  -3 -17    4.20    2.70
   2   3  17    6.40    1.40
   2   3  17    3.60    2.60
   3   3  17   74.89    6.30
   3   3  17   78.99    3.80
   4  -4 -17    2.40    1.80
   4  -4 -17    5.30    2.90
  -4   4  17    6.90    2.80
   3  -4 -17   69.89    3.20
   3  -4 -17   68.99    4.40
  -3   4  17   66.19    3.70
  -3   4  17   62.89    4.10
   2  -4 -17  205.98    6.00
   2  -4 -17  194.58    7.60
  -2   4  17  207.38    6.60
  -2   4  17  214.38    7.60
   1  -4 -17   75.89    4.30
   1  -4 -17   78.09    2.30
  -1   4  17   75.89    3.40
  -1   4  17   75.39    4.40
   0  -4 -17    2.10    2.20
   0   4  17   -0.10    2.00
   0   4  17    1.80    1.20
  -1  -4 -17   23.70    3.40
   1   4  17   26.20    2.80
   1   4  17   23.80    2.40
   1   4  17   25.90    3.60
  -2  -4 -17   13.00    3.30
   2   4  17   19.30    2.10
   2   4  17   15.20    3.30
   4  -5 -17   56.39    3.90
   4  -5 -17   62.09    5.60
  -4   5  17   58.89    5.10
   3  -5 -17   52.69    3.10
   3  -5 -17   51.59    4.70
  -3   5  17   54.49    3.90
  -3   5  17   54.39    4.50
   2  -5 -17  125.19    4.30
   2  -5 -17  117.79    6.00
  -2   5  17  131.49    5.10
  -2   5  17  130.09    6.00
   1  -5 -17   19.80    1.50
   1  -5 -17   21.20    3.10
  -1   5  17   20.40    2.70
  -1   5  17   20.00    2.10
   0  -5 -17    8.70    2.80
   0   5  17    4.60    2.20
   0   5  17    6.10    1.70
  -1  -5 -17  137.29    7.00
   1   5  17  128.39    6.20
   1   5  17  116.49    6.70
   1   5  17  122.89    5.00
   3  -6 -17   40.40    3.30
   3  -6 -17   38.20    4.20
  -3   6  17   40.00    4.10
   2  -6 -17    4.90    1.50
   2  -6 -17    7.10    3.00
  -2   6  17    9.90    2.90
  -2   6  17    6.30    2.10
   1  -6 -17   55.29    2.60
   1  -6 -17   57.79    5.10
  -1   6  17   62.49    3.90
  -1   6  17   59.99    4.90
   0  -6 -17  187.68    8.00
   0   6  17  196.38    6.80
   0   6  17  191.78    8.10
  -1  -6 -17   73.59    7.10
   1   6  17   79.29    5.40
   1   6  17   68.49    4.80
   1   6  17   77.19    7.20
   2  -7 -17  264.47   10.30
   1  -7 -17   47.90    3.00
   1  -7 -17   49.99    5.80
  -1   7  17   52.39    4.60
  -1  -7  18   -0.20    2.10
   0   7 -18   10.30    3.20
   0  -7  18   10.60    2.00
   0  -7  18   10.50    3.30
  -1   7 -18   11.10    2.90
   1  -7  18    9.50    1.80
   1  -7  18    9.10    3.70
  -2   7 -18   26.40    3.90
   2   6 -18   92.39    3.30
   2   6 -18   75.89    5.50
  -2  -6  18   91.89    6.20
  -2  -6  18   98.29    5.00
   1   6 -18    9.00    3.00
  -1  -6  18    9.20    1.90
  -1  -6  18    9.20    3.10
   0   6 -18   58.79    4.40
   0  -6  18   61.79    3.30
   0  -6  18   57.39    5.10
  -1   6 -18  160.58    7.00
   1  -6  18  169.88    7.30
   1  -6  18  164.08    5.40
  -2   6 -18    7.60    3.00
  -2   6 -18    6.10    2.50
   2  -6  18    8.50    3.20
   2  -6  18    9.10    1.50
  -3   6 -18   11.20    3.30
   3  -6  18   10.90    1.60
   3  -6  18   10.40    3.60
   3   5 -18   15.40    3.70
  -3  -5  18   14.60    2.90
   2   5 -18   52.79    4.80
   2   5 -18   57.59    2.30
  -2  -5  18   59.49    3.70
  -2  -5  18   61.89    5.50
   1   5 -18   24.60    3.00
  -1  -5  18   24.20    3.40
  -1  -5  18   17.60    1.90
   0   5 -18  120.89    5.60
   0  -5  18  108.39    5.40
   0  -5  18  109.29    4.10
  -1   5 -18    0.10    2.20
   1  -5  18    0.80    2.30
   1  -5  18   -0.10    1.00
  -2   5 -18    0.50    2.30
  -2   5 -18    1.80    2.40
   2  -5  18    1.60    1.00
   2  -5  18    1.70    2.50
  -3   5 -18   -0.70    2.90
   3  -5  18    0.90    3.20
   3  -5  18    0.50    1.10
   3   4 -18   14.70    1.70
   3   4 -18   10.50    3.00
  -3  -4  18   12.10    3.30
  -3  -4  18   14.50    2.50
   2   4 -18    1.50    0.80
   2   4 -18    1.00    2.10
  -2  -4  18    1.30    1.50
  -2  -4  18    3.00    2.40
   1   4 -18  113.59    5.50
  -1  -4  18  120.79    4.30
  -1  -4  18  128.69    5.70
   0   4 -18   32.50    3.50
   0  -4  18   34.90    2.10
   0  -4  18   32.90    3.60
  -1   4 -18   56.99    4.00
   1  -4  18   56.59    4.40
   1  -4  18   59.79    2.30
  -2   4 -18   78.59    4.50
  -2   4 -18   70.09    4.40
   2  -4  18   68.79    2.40
   2  -4  18   69.89    4.50
  -3   4 -18   10.50    2.90
   3  -4  18   11.60    1.00
   3  -4  18   12.00    3.10
   4   3 -18   19.50    3.80
   3   3 -18  154.78    6.70
   3   3 -18  165.08    6.80
   3   3 -18  151.08    5.10
  -3  -3  18  164.18    7.40
  -3  -3  18  156.28    5.90
   2   3 -18    8.70    2.20
   2   3 -18    9.90    2.50
   2   3 -18    9.50    1.00
  -2  -3  18    9.90    1.60
  -2  -3  18    6.10    2.60
   1   3 -18   65.59    3.80
  -1  -3  18   62.59    2.80
  -1  -3  18   58.89    3.90
   0   3 -18  111.19    5.20
   0  -3  18  118.69    3.70
   0  -3  18  113.49    5.00
  -1   3 -18   83.59    4.40
   1  -3  18   91.89    4.80
   1  -3  18   83.69    2.70
  -2   3 -18   18.60    2.70
  -2   3 -18   20.00    2.60
   2  -3  18   20.10    2.90
  -3   3 -18    3.00    2.50
   3  -3  18    3.40    4.10
   4  -3  18    1.50    1.10
   4   2 -18   23.00    3.50
   4   2 -18   30.00    3.00
  -4  -2  18   27.10    4.10
   3   2 -18    9.10    1.30
   3   2 -18   11.00    2.60
   3   2 -18   10.10    2.60
  -3  -2  18   14.50    2.00
  -3  -2  18    9.20    2.60
  -3  -2  18    8.50    2.50
   2   2 -18    0.70    1.80
   2   2 -18   -0.10    1.70
   2   2 -18    0.90    0.50
  -2  -2  18    0.70    1.20
  -2  -2  18   -0.10    1.90
   1   2 -18  198.28    7.10
   1   2 -18  205.58    7.00
  -1  -2  18  206.48    7.20
  -1  -2  18  200.78    6.00
   0   2 -18   72.49    4.00
   0   2 -18   67.49    3.70
   0  -2  18   69.99    2.50
   0  -2  18   70.69    4.00
  -1   2 -18    7.00    2.00
  -1   2 -18    6.00    1.80
   1  -2  18    6.50    2.10
   1  -2  18    6.30    0.70
   1  -2  18    6.60    2.00
  -2   2 -18   11.80    2.30
   2  -2  18   12.50    2.30
   4  -2  18    3.90    1.20
   4   1 -18   -0.80    2.30
   4   1 -18    0.40    1.50
  -4  -1  18    1.20    2.60
   3   1 -18    5.00    1.20
   3   1 -18    4.20    2.20
   3   1 -18    3.60    2.00
  -3  -1  18    3.00    1.50
  -3  -1  18    4.20    2.50
  -3  -1  18    5.40    2.20
   2   1 -18  230.68    8.00
   2   1 -18  233.08    8.10
  -2  -1  18  244.48    8.30
  -2  -1  18  236.88    7.10
  -2  -1  18  235.28    8.10
   1   1 -18   91.19    4.20
   1   1 -18   87.69    4.30
  -1  -1  18   87.89    4.30
  -1  -1  18   79.89    4.20
  -1  -1  18   87.09    3.10
   0   1 -18   -0.20    1.50
   0   1 -18    0.40    1.60
   0  -1  18    0.20    1.40
   0  -1  18   -0.10    0.70
   0  -1  18    0.20    1.60
  -1   1 -18   48.00    3.20
  -1   1 -18   56.59    3.60
   1  -1  18   54.79    1.80
   1  -1  18   57.79    3.40
  -2   1 -18    1.70    2.10
  -2   1 -18    2.20    2.00
   2  -1  18    2.90    2.20
   2  -1  18    0.50    2.90
  -3   1 -18  234.38    8.60
   3  -1  18  241.68    8.80
   3  -1  18  228.78    6.30
   4  -1  18    6.50    1.30
   4   0 -18   46.10    3.10
   4   0 -18   44.80    4.20
  -4   0  18   48.70    5.00
   3   0 -18   47.20    4.00
   3   0 -18   48.00    3.90
   3   0 -18   47.80    2.40
  -3   0  18   48.00    3.80
  -3   0  18   45.60    4.00
  -3   0  18   41.50    2.90
   2   0 -18   18.10    1.00
   2   0 -18   14.40    2.20
   2   0 -18   16.80    2.40
  -2   0  18   14.60    1.50
  -2   0  18   17.20    2.40
  -2   0  18   16.30    2.40
   1   0 -18   82.59    4.20
   1   0 -18   85.29    4.10
  -1   0  18   80.49    4.00
  -1   0  18   84.29    3.10
   0   0 -18   27.70    2.70
   0   0 -18   24.20    2.90
   0   0  18   24.40    1.50
   0   0  18   24.80    2.80
  -1   0 -18   52.79    3.70
  -1   0 -18   65.49    3.90
   1   0  18   65.99    3.80
   1   0  18   62.19    2.10
  -2   0 -18   20.90    2.90
   2   0  18   27.20    1.40
   2   0  18   23.70    3.00
  -3   0 -18  213.58    8.20
   3   0  18  196.98    5.70
   3   0  18  194.18    8.20
   4  -1 -18   13.10    2.80
   4  -1 -18   15.30    1.90
  -4   1  18   16.60    3.20
  -4   1  18   15.60    2.90
   3  -1 -18   33.60    3.40
   3  -1 -18   36.10    2.20
  -3   1  18   34.30    3.60
  -3   1  18   35.00    3.70
  -3   1  18   33.10    2.80
   2  -1 -18   26.70    3.20
   2  -1 -18   28.90    1.30
  -2   1  18   21.90    2.60
  -2   1  18   29.50    2.20
   1  -1 -18   11.00    2.00
  -1   1  18   17.10    2.20
  -1   1  18   14.90    1.40
   0  -1 -18  303.07    9.80
   0   1  18  311.97    8.40
   0   1  18  300.37    9.70
  -1  -1 -18   37.10    3.50
   1   1  18   36.50    3.00
   1   1  18   38.00    1.80
  -2  -1 -18    0.50    2.20
   2   1  18   -0.10    2.20
   2   1  18    0.00    0.80
  -3  -1 -18   11.30    3.20
   3   1  18   12.90    1.40
   3   1  18   11.60    3.40
   4  -2 -18   58.09    4.70
   4  -2 -18   60.69    3.40
  -4   2  18   56.99    4.50
   3  -2 -18  145.09    6.20
   3  -2 -18  127.69    4.40
  -3   2  18  131.29    5.80
  -3   2  18  130.59    5.00
   2  -2 -18   13.80    1.20
   2  -2 -18   15.20    2.40
  -2   2  18   12.30    1.60
  -2   2  18   11.00    2.30
   1  -2 -18    1.90    1.70
  -1   2  18    2.10    1.80
  -1   2  18    2.00    1.00
   0  -2 -18   74.29    4.30
   0   2  18   67.49    2.70
   0   2  18   69.29    4.10
  -1  -2 -18    4.50    2.30
   1   2  18    4.70    1.00
   1   2  18    4.30    2.00
  -2  -2 -18    9.20    2.80
   2   2  18    9.90    1.30
   2   2  18    9.30    2.90
   3   2  18   25.30    4.20
   3   2  18   25.10    2.00
   4  -3 -18    6.20    3.10
   4  -3 -18    5.40    1.80
  -4   3  18    7.90    2.70
   3  -3 -18    3.50    2.50
   3  -3 -18    2.00    1.20
  -3   3  18    1.90    1.60
  -3   3  18    2.20    2.10
   2  -3 -18   27.00    1.60
   2  -3 -18   30.80    3.50
  -2   3  18   30.00    2.50
  -2   3  18   25.10    2.80
   1  -3 -18   -0.10    1.70
  -1   3  18   -0.10    1.10
  -1   3  18    0.40    1.80
   0  -3 -18  108.99    5.10
   0   3  18  103.89    4.90
   0   3  18  110.79    3.90
  -1  -3 -18   70.19    4.60
   1   3  18   69.99    3.10
   1   3  18   71.69    4.50
  -2  -3 -18   53.29    4.70
   2   3  18   46.10    4.70
   2   3  18   51.29    2.90
   4  -4 -18   83.19    4.20
   4  -4 -18   88.69    6.20
  -4   4  18   85.09    5.50
   3  -4 -18   34.10    2.60
   3  -4 -18   39.20    4.30
  -3   4  18   36.30    3.30
  -3   4  18   34.00    3.50
   2  -4 -18   29.80    3.40
   2  -4 -18   26.70    1.80
  -2   4  18   30.70    3.20
  -2   4  18   29.10    2.80
   1  -4 -18    0.20    2.20
  -1   4  18    2.20    1.40
  -1   4  18    1.10    2.10
   0  -4 -18   86.39    5.20
   0   4  18   89.79    4.70
   0   4  18   78.69    3.60
  -1  -4 -18    9.20    2.80
   1   4  18    8.40    1.70
   1   4  18    7.10    2.60
   1   4  18    6.80    2.90
  -2  -4 -18    9.20    3.30
   2   4  18   10.30    2.00
   2   4  18    9.80    3.40
   3  -5 -18    0.90    2.80
   3  -5 -18    0.30    1.50
  -3   5  18    0.20    2.10
  -3   5  18   -0.80    2.50
   2  -5 -18    4.50    2.60
   2  -5 -18    5.80    1.30
  -2   5  18    5.90    2.40
  -2   5  18    5.90    2.00
   1  -5 -18   -0.70    2.20
  -1   5  18   -0.20    1.60
  -1   5  18   -0.10    2.40
   0  -5 -18    1.10    2.80
   0   5  18   -0.80    1.60
   0   5  18   -0.30    2.40
  -1  -5 -18    9.00    3.60
   1   5  18   12.70    3.70
   1   5  18   11.90    2.10
   1   5  18    9.50    3.10
   3  -6 -18  158.08    7.80
  -3   6  18  159.98    8.40
   2  -6 -18  121.39    4.50
   2  -6 -18  120.89    6.80
  -2   6  18  124.49    5.50
  -2   6  18  127.59    6.30
   1  -6 -18   11.90    1.20
   1  -6 -18   13.00    3.60
  -1   6  18   17.30    3.50
  -1   6  18   14.10    2.40
   0  -6 -18   17.60    3.90
   0   6  18   21.10    3.80
   0   6  18   13.20    2.40
  -1   7 -19    6.50    3.80
   1   6 -19   26.60    3.90
  -1  -6  19   29.70    4.30
  -1  -6  19   29.60    2.60
   0   6 -19   -0.30    2.70
   0  -6  19    0.90    1.50
   0  -6  19    1.40    2.80
  -1   6 -19   27.90    3.60
   1  -6  19   22.10    3.90
   1  -6  19   20.30    2.00
  -2   6 -19    5.10    3.10
  -2   6 -19   -0.30    2.90
   2  -6  19    2.00    3.20
   2  -6  19    2.70    1.40
   2   5 -19    1.90    2.90
  -2  -5  19    0.10    3.00
  -2  -5  19    0.80    1.80
   1   5 -19   39.70    3.90
  -1  -5  19   43.60    4.40
  -1  -5  19   40.50    3.00
   0   5 -19    7.30    2.60
   0  -5  19   11.30    3.00
   0  -5  19    8.50    1.50
  -1   5 -19   44.00    4.20
   1  -5  19   46.10    4.80
   1  -5  19   45.50    2.50
  -2   5 -19  194.68    7.90
  -2   5 -19  201.88    8.40
   2  -5  19  209.18    8.70
   2  -5  19  209.08    6.00
  -3   5 -19   24.10    3.70
   3  -5  19   27.80    4.00
   3  -5  19   29.10    2.10
   3   4 -19   31.30    2.50
   3   4 -19   26.50    3.50
  -3  -4  19   28.10    3.00
  -3  -4  19   33.50    4.50
   2   4 -19    0.10    2.60
  -2  -4  19    1.60    2.60
  -2  -4  19   -0.10    1.60
   1   4 -19  373.36   11.80
  -1  -4  19  354.46   10.40
  -1  -4  19  370.86   11.90
   0   4 -19   47.00    4.10
   0  -4  19   47.40    4.10
   0  -4  19   44.60    2.40
  -1   4 -19   13.40    2.70
   1  -4  19   14.70    3.00
   1  -4  19   12.30    1.20
  -2   4 -19   -0.10    2.60
  -2   4 -19   -0.80    2.30
   2  -4  19    1.30    2.80
   2  -4  19    0.00    0.80
  -3   4 -19    0.80    2.80
   3  -4  19    3.20    0.90
   3  -4  19    1.30    2.80
   3   3 -19   14.40    3.00
   3   3 -19   18.80    3.20
   3   3 -19   19.70    2.10
  -3  -3  19   23.90    3.90
  -3  -3  19   20.60    2.50
   2   3 -19   19.70    2.80
   2   3 -19   14.70    2.70
  -2  -3  19   19.10    3.30
  -2  -3  19   18.50    1.90
   1   3 -19   40.10    3.40
  -1  -3  19   36.80    3.50
  -1  -3  19   33.80    2.30
   0   3 -19   40.10    3.40
   0  -3  19   42.60    3.80
   0  -3  19   47.50    2.20
  -1   3 -19    2.70    1.80
   1  -3  19    3.80    2.30
   1  -3  19    3.40    0.80
  -2   3 -19   25.60    3.00
  -2   3 -19   27.90    3.30
   2  -3  19   26.30    3.40
   2  -3  19   24.40    3.00
   4   2 -19   40.20    4.30
  -4  -2  19   37.60    5.20
   3   2 -19    6.60    2.40
   3   2 -19    8.10    1.30
   3   2 -19   10.40    2.70
  -3  -2  19   10.20    2.40
  -3  -2  19    8.50    1.90
  -3  -2  19    9.30    3.10
   2   2 -19   42.20    3.70
   2   2 -19   35.00    3.80
  -2  -2  19   41.10    3.80
  -2  -2  19   33.80    2.60
  -2  -2  19   42.10    4.10
   1   2 -19    1.30    1.70
   1   2 -19    0.50    1.90
  -1  -2  19    1.40    1.00
  -1  -2  19   -0.10    2.00
   0   2 -19   84.69    4.10
   0   2 -19   78.19    4.40
   0  -2  19   82.39    4.40
   0  -2  19   77.69    2.80
   0  -2  19   80.79    4.40
  -1   2 -19  229.48    7.90
  -1   2 -19  230.08    9.60
   1  -2  19  223.08    7.80
   1  -2  19  225.88    7.90
   1  -2  19  219.58    6.10
  -2   2 -19   85.69    4.80
   2  -2  19   89.69    6.30
   4   1 -19  133.79    6.90
   4   1 -19  137.99    5.00
  -4  -1  19  127.89    7.20
   3   1 -19   38.10    2.20
   3   1 -19   41.30    4.20
   3   1 -19   37.00    4.00
  -3  -1  19   46.70    4.10
  -3  -1  19   29.90    3.50
  -3  -1  19   43.90    3.10
   2   1 -19   39.30    3.70
   2   1 -19   46.90    3.80
  -2  -1  19   45.00    2.60
  -2  -1  19   47.40    3.80
  -2  -1  19   47.00    3.90
   1   1 -19   27.50    3.20
   1   1 -19   20.90    2.50
  -1  -1  19   28.60    3.10
  -1  -1  19   26.80    2.80
  -1  -1  19   21.70    1.80
   0   1 -19   98.99    4.80
   0   1 -19   95.09    4.60
   0  -1  19  102.29    4.80
   0  -1  19   93.89    3.10
  -1   1 -19   43.40    3.40
  -1   1 -19   41.10    3.50
   1  -1  19   42.50    1.70
   1  -1  19   50.59    3.60
  -2   1 -19    0.90    2.30
   2  -1  19    1.00    2.10
  -3   1 -19    4.50    3.10
   4   0 -19   54.79    3.30
   4   0 -19   58.99    4.70
  -4   0  19   65.19    5.60
   3   0 -19    0.90    2.30
   3   0 -19    1.50    1.00
   3   0 -19    0.60    2.30
  -3   0  19    0.90    2.10
  -3   0  19    1.00    1.40
  -3   0  19    1.40    2.20
   2   0 -19   41.50    3.70
   2   0 -19   35.20    3.50
  -2   0  19   45.90    3.90
  -2   0  19   45.20    3.60
  -2   0  19   45.90    2.60
   1   0 -19  207.38    7.30
   1   0 -19  209.88    7.40
  -1   0  19  210.98    7.40
  -1   0  19  199.18    6.10
   0   0 -19   14.70    2.30
   0   0 -19   13.30    2.20
   0   0  19   16.20    2.20
   0   0  19   17.70    1.50
  -1   0 -19    5.00    1.90
   1   0  19    6.10    0.90
   1   0  19    4.70    2.10
  -2   0 -19   33.50    3.50
   2   0  19   30.50    3.40
   2   0  19   28.40    1.50
  -3   0 -19   17.00    3.50
   3   0  19   16.30    3.60
   3   0  19   17.50    1.80
   4  -1 -19   23.70    3.70
   4  -1 -19   32.30    2.90
  -4   1  19   28.40    3.60
  -4   1  19   24.10    3.70
   3  -1 -19   41.80    2.30
   3  -1 -19   38.40    4.10
  -3   1  19   35.00    2.90
  -3   1  19   42.30    4.00
   2  -1 -19   40.30    3.40
  -2   1  19   40.20    3.70
  -2   1  19   43.60    2.60
   1  -1 -19   16.60    2.50
  -1   1  19   17.90    1.80
  -1   1  19   16.70    2.30
   0  -1 -19  219.38    7.70
   0   1  19  216.18    7.70
   0   1  19  228.58    6.40
  -1  -1 -19   11.50    2.50
   1   1  19   12.40    1.10
   1   1  19   10.90    2.30
  -2  -1 -19   29.50    3.60
   2   1  19   32.20    3.70
   2   1  19   28.50    1.90
  -3  -1 -19   72.39    5.90
   3   1  19   69.49    6.10
   3   1  19   70.99    3.10
   4  -2 -19    5.90    1.80
   4  -2 -19    2.60    3.00
  -4   2  19    5.10    2.80
   3  -2 -19   18.70    2.00
   3  -2 -19   23.60    3.20
  -3   2  19   24.40    2.40
  -3   2  19   20.80    2.80
   2  -2 -19    0.80    1.90
  -2   2  19    0.50    2.00
  -2   2  19   -0.20    1.20
   1  -2 -19   84.99    4.50
  -1   2  19   84.69    4.60
  -1   2  19   82.99    3.40
   0  -2 -19   54.89    4.10
   0   2  19   56.89    4.00
   0   2  19   53.79    2.50
  -1  -2 -19  171.88    7.20
   1   2  19  163.78    6.70
   1   2  19  176.08    5.20
  -2  -2 -19    1.70    2.80
   2   2  19    0.90    3.00
   2   2  19    2.60    1.20
   4  -3 -19   38.80    3.20
   4  -3 -19   37.90    4.60
  -4   3  19   29.70    3.60
   3  -3 -19   26.90    3.50
   3  -3 -19   23.40    2.20
  -3   3  19   27.00    3.30
  -3   3  19   19.20    2.40
   2  -3 -19  119.79    5.50
   2  -3 -19  114.69    3.40
  -2   3  19  119.89    5.70
  -2   3  19  114.99    4.50
   1  -3 -19   35.70    3.90
  -1   3  19   33.90    3.30
  -1   3  19   32.40    2.50
   0  -3 -19   20.90    2.90
   0   3  19   25.60    3.00
   0   3  19   21.40    2.20
  -1  -3 -19    4.00    2.50
   1   3  19    9.10    1.50
   1   3  19   10.80    2.70
  -2  -3 -19   69.19    5.90
   2   3  19   77.89    3.60
   2   3  19   70.19    6.10
  -4   4  19    0.20    3.10
   3  -4 -19    8.40    3.10
   3  -4 -19    3.30    1.40
  -3   4  19    2.50    2.60
  -3   4  19    6.60    2.10
   2  -4 -19   54.59    4.70
   2  -4 -19   50.69    2.20
  -2   4  19   58.29    3.50
  -2   4  19   49.99    4.50
   1  -4 -19   55.09    4.70
  -1   4  19   49.50    3.20
  -1   4  19   58.19    4.50
   0  -4 -19    2.00    2.60
   0   4  19    6.70    2.40
   0   4  19    3.80    1.50
  -1  -4 -19   18.20    3.80
   1   4  19   16.20    2.00
   1   4  19   16.60    3.70
   1   4  19   14.40    3.10
   3  -5 -19   90.49    6.20
   3  -5 -19   85.99    3.90
  -3   5  19   88.49    5.90
  -3   5  19   91.09    5.10
   2  -5 -19    1.60    1.10
   2  -5 -19    4.20    3.00
  -2   5  19    2.50    2.80
  -2   5  19    2.50    2.10
   1  -5 -19   47.50    4.50
  -1   5  19   38.90    4.10
  -1   5  19   39.70    3.40
   0  -5 -19   73.19    6.00
   0   5  19   65.59    3.90
   0   5  19   66.99    5.20
   1   5  19   37.60    4.10
   2  -6 -19   19.70    2.00
   2  -6 -19   18.60    4.00
  -2   6  19   26.10    3.00
   1  -6 -19   14.60    3.50
  -1   6  19   13.30    2.60
   0   6 -20   15.90    3.50
   0  -6  20   16.90    3.90
   0  -6  20   14.40    2.00
  -1   6 -20  179.08    7.80
   1  -6  20  176.28    5.80
   1  -6  20  172.18    8.30
   2   5 -20   57.79    5.50
  -2  -5  20   59.19    4.10
   1   5 -20   30.90    3.70
  -1  -5  20   34.90    4.10
  -1  -5  20   41.90    3.10
   0   5 -20    5.90    2.80
   0  -5  20    3.60    1.40
   0  -5  20    3.30    3.00
  -1   5 -20   29.00    3.60
   1  -5  20   27.70    2.30
   1  -5  20   33.30    3.80
  -2   5 -20   72.29    6.00
  -2   5 -20   80.19    5.50
   2  -5  20   73.69    3.00
   2  -5  20   80.99    6.20
   2   4 -20    1.10    2.80
  -2  -4  20    1.30    3.30
  -2  -4  20   -0.30    1.70
   1   4 -20   -1.00    2.20
  -1  -4  20   -0.40    2.40
  -1  -4  20    0.40    1.30
   0   4 -20    6.20    2.60
   0  -4  20    5.20    2.70
   0  -4  20    6.20    1.30
  -1   4 -20  120.89    6.00
   1  -4  20  116.89    3.90
   1  -4  20  128.99    6.30
  -2   4 -20   26.40    3.70
  -2   4 -20   29.40    3.50
   2  -4  20   26.10    1.70
   2  -4  20   27.20    3.80
  -3   4 -20   35.60    4.20
   3   3 -20    1.30    1.20
   3   3 -20   -0.30    3.00
   3   3 -20    1.80    2.90
  -3  -3  20    0.90    2.00
  -3  -3  20    0.20    3.00
   2   3 -20    2.10    2.50
  -2  -3  20    1.20    1.60
  -2  -3  20    1.30    2.80
   1   3 -20    2.10    2.30
  -1  -3  20    2.30    2.50
  -1  -3  20    1.30    1.20
   0   3 -20  263.77    9.20
   0  -3  20  267.97    9.20
   0  -3  20  264.67    7.50
  -1   3 -20   91.99    5.00
   1  -3  20   92.09    5.20
   1  -3  20   88.39    3.00
  -2   3 -20    2.30    3.20
  -2   3 -20    2.00    2.40
   3   2 -20  104.99    5.60
   3   2 -20  106.89    3.60
   3   2 -20  100.09    6.00
  -3  -2  20  106.99    4.80
  -3  -2  20  108.79    5.90
  -3  -2  20  116.29    6.50
   2   2 -20   25.20    3.10
   2   2 -20   26.70    3.00
  -2  -2  20   24.80    2.90
  -2  -2  20   22.40    2.10
  -2  -2  20   24.90    3.40
   1   2 -20   35.40    3.80
   1   2 -20   35.90    3.50
  -1  -2  20   35.90    2.30
  -1  -2  20   32.60    3.80
  -1  -2  20   42.60    3.90
   0   2 -20    1.10    1.90
   0   2 -20    2.00    2.10
   0  -2  20    1.70    2.00
   0  -2  20    1.40    2.10
   0  -2  20    1.40    0.90
  -1   2 -20    1.20    2.10
   1  -2  20    1.40    2.10
   1  -2  20    1.20    0.70
   4   1 -20   27.30    5.90
  -4  -1  20   28.50    4.50
   3   1 -20   27.90    1.90
   3   1 -20   32.40    3.60
   3   1 -20   20.00    3.00
  -3  -1  20   35.60    3.90
  -3  -1  20   36.20    3.80
  -3  -1  20   29.40    3.10
   2   1 -20  101.49    5.20
   2   1 -20  103.69    5.30
  -2  -1  20   96.59    4.00
  -2  -1  20   97.29    5.30
  -2  -1  20  104.29    5.40
   1   1 -20   65.89    4.30
   1   1 -20   67.09    3.90
  -1  -1  20   66.09    2.90
  -1  -1  20   66.29    4.40
  -1  -1  20   73.49    4.20
   0   1 -20   33.90    3.50
   0   1 -20   39.80    3.60
   0  -1  20   37.80    3.60
   0  -1  20   34.60    1.90
  -1   1 -20   63.89    4.20
  -1   1 -20   62.99    4.20
   1  -1  20   60.79    2.20
   1  -1  20   60.59    4.20
  -2   1 -20    4.40    2.60
   2  -1  20    2.50    2.60
   4   0 -20   14.40    3.80
  -4   0  20    7.80    4.50
  -4   0  20   18.80    4.00
   3   0 -20   37.20    2.10
   3   0 -20   38.30    4.30
   3   0 -20   33.70    3.80
  -3   0  20   40.90    4.10
  -3   0  20   39.20    3.20
  -3   0  20   44.70    4.50
   2   0 -20   25.00    2.90
   2   0 -20   21.00    2.90
  -2   0  20   20.10    1.80
  -2   0  20   15.30    2.50
   1   0 -20   66.59    4.10
   1   0 -20   65.49    4.20
  -1   0  20   66.09    2.90
  -1   0  20   64.79    4.00
   0   0 -20   78.79    4.60
   0   0 -20   71.39    4.30
   0   0  20   77.19    2.80
   0   0  20   82.99    4.50
  -1   0 -20   71.79    4.60
   1   0  20   74.89    4.20
   1   0  20   76.09    2.60
  -2   0 -20    0.20    2.60
   2   0  20    0.20    0.80
   2   0  20   -0.60    2.60
  -3   0 -20   11.30    3.60
   3   0  20   16.70    4.00
   3   0  20   16.10    1.40
   4  -1 -20   12.30    4.00
   4  -1 -20   14.70    2.80
  -4   1  20   15.80    3.30
   3  -1 -20    0.40    1.00
   3  -1 -20    1.20    2.60
  -3   1  20    0.90    1.70
  -3   1  20   -0.20    2.40
   2  -1 -20   42.90    4.10
  -2   1  20   47.90    4.10
  -2   1  20   45.80    2.90
   1  -1 -20    9.00    2.20
  -1   1  20   10.50    1.40
  -1   1  20    8.50    2.10
   0  -1 -20   83.19    4.80
   0   1  20   88.39    3.20
   0   1  20   91.09    4.60
  -1  -1 -20   34.00    4.00
   1   1  20   36.00    2.00
   1   1  20   32.00    3.70
  -2  -1 -20   -0.20    2.40
   2   1  20   -0.70    2.50
   2   1  20   -0.20    1.00
  -4   2  20   50.99    5.10
   3  -2 -20   73.99    3.00
   3  -2 -20   76.99    4.90
  -3   2  20   68.99    4.90
  -3   2  20   75.29    4.10
   2  -2 -20   93.89    5.00
  -2   2  20   88.89    4.00
  -2   2  20  107.39    5.40
   1  -2 -20    4.90    2.20
  -1   2  20    7.40    1.40
  -1   2  20    5.40    2.10
   0  -2 -20   15.50    2.90
   0   2  20   13.60    1.50
   0   2  20   11.30    2.60
  -1  -2 -20  169.68    7.30
   1   2  20  193.08    7.30
   1   2  20  182.08    5.60
  -2  -2 -20   13.00    3.20
   2   2  20    9.30    3.20
   2   2  20    7.70    1.50
   3  -3 -20   20.30    1.70
   3  -3 -20   19.70    3.50
  -3   3  20   15.70    2.90
  -3   3  20   22.20    2.60
   2  -3 -20   59.69    4.80
  -2   3  20   60.79    3.40
  -2   3  20   59.59    4.60
   1  -3 -20   10.50    2.60
  -1   3  20   12.40    1.70
  -1   3  20    8.60    2.40
   0  -3 -20   44.80    4.60
   0   3  20   47.80    2.80
   0   3  20   44.10    3.90
  -1  -3 -20    2.40    2.70
   1   3  20    2.30    2.30
   1   3  20    2.40    1.50
   3  -4 -20    3.10    1.40
   3  -4 -20    0.80    2.70
  -3   4  20    2.90    2.20
  -3   4  20    1.80    2.80
   2  -4 -20    4.60    3.00
  -2   4  20    3.80    2.80
  -2   4  20    6.00    1.90
   1  -4 -20  180.18    7.70
  -1   4  20  171.38    6.10
  -1   4  20  183.48    7.60
   0  -4 -20   46.20    5.10
   0   4  20   50.79    3.30
   0   4  20   46.90    4.30
  -1  -4 -20    1.80    3.80
   1   4  20    1.90    4.00
   1   4  20    1.10    1.80
   1   4  20    0.20    3.00
   2  -5 -20    4.70    1.10
   2  -5 -20    7.50    3.40
  -2   5  20    5.90    2.20
  -2   5  20    3.70    3.10
   1  -5 -20    1.80    3.10
  -1   5  20   -0.70    1.80
  -1   5  20   -1.60    2.50
   0   5  20    2.30    3.00
   0   5  20    3.50    3.20
   1   5 -21    1.30    3.20
  -1  -5  21   -0.70    1.60
  -1  -5  21    0.80    3.50
   0   5 -21   40.30    4.20
   0  -5  21   33.10    4.30
   0  -5  21   36.80    2.90
  -1   5 -21   20.60    3.60
   1  -5  21   22.70    4.00
   1  -5  21   23.30    2.30
  -2   5 -21   65.09    5.50
   2  -5  21   63.99    2.80
   2  -5  21   52.89    6.20
   2   4 -21    0.50    2.70
  -2  -4  21   -0.50    3.10
  -2  -4  21    1.80    1.90
   1   4 -21   68.89    5.40
  -1  -4  21   71.69    3.60
  -1  -4  21   80.19    5.70
   0   4 -21   73.79    5.00
   0  -4  21   91.29    5.70
   0  -4  21   96.19    3.60
  -1   4 -21   20.20    3.00
   1  -4  21   20.20    1.90
   1  -4  21   21.30    3.60
  -2   4 -21   15.90    5.50
   2  -4  21   22.30    3.80
   2  -4  21   21.70    1.70
   3   3 -21    4.10    3.00
  -3  -3  21    5.50    3.20
  -3  -3  21    3.40    2.20
   2   3 -21    4.80    3.00
  -2  -3  21    5.90    3.20
  -2  -3  21    5.00    1.80
   1   3 -21    0.10    2.50
  -1  -3  21    0.20    2.60
  -1  -3  21   -0.10    1.20
   0   3 -21   89.99    5.00
   0  -3  21   97.39    5.50
   0  -3  21   92.19    3.40
  -1   3 -21    0.00    2.40
   1  -3  21    0.40    2.60
   1  -3  21   -0.30    2.30
   1  -3  21    0.20    0.90
   3   2 -21  165.08    7.60
   3   2 -21  162.38    7.40
   3   2 -21  159.18    4.50
  -3  -2  21  155.68    7.90
  -3  -2  21  153.28    6.10
  -3  -2  21  164.48    7.50
   2   2 -21   47.70    4.30
   2   2 -21   46.90    4.60
  -2  -2  21   43.20    4.40
  -2  -2  21   51.69    5.00
  -2  -2  21   38.80    3.00
   1   2 -21    0.50    2.10
   1   2 -21    1.20    2.10
  -1  -2  21    1.40    2.00
  -1  -2  21    1.60    1.20
  -1  -2  21    2.20    2.50
   0   2 -21   17.10    2.90
   0  -2  21   22.30    1.80
   0  -2  21   19.70    2.90
  -1   2 -21  230.38    8.20
   1  -2  21  225.38    6.20
   1  -2  21  230.28    8.20
   3   1 -21    1.00    2.50
   3   1 -21    1.40    0.90
   3   1 -21    1.30    2.80
  -3  -1  21    2.30    1.90
  -3  -1  21    2.10    2.80
  -3  -1  21    0.80    3.10
   2   1 -21   65.39    4.70
   2   1 -21   57.19    4.70
  -2  -1  21   62.29    4.70
  -2  -1  21   65.39    4.70
  -2  -1  21   58.39    3.20
   1   1 -21    5.10    2.20
   1   1 -21    1.90    2.10
  -1  -1  21    2.50    2.10
  -1  -1  21    3.60    1.20
   0   1 -21   39.20    3.80
   0   1 -21   35.20    3.80
   0  -1  21   41.00    3.90
   0  -1  21   35.50    2.10
  -1   1 -21   15.60    2.90
  -1   1 -21   16.70    3.00
   1  -1  21   15.90    1.40
   1  -1  21   16.30    2.80
  -2   1 -21  134.79    6.70
   3   0 -21   28.70    1.70
   3   0 -21   27.10    3.50
   3   0 -21   31.10    3.80
  -3   0  21   23.10    3.10
  -3   0  21   26.70    2.50
   2   0 -21  106.69    5.40
   2   0 -21  119.19    6.00
  -2   0  21  111.29    5.70
  -2   0  21  109.79    4.40
   1   0 -21   30.90    3.40
   1   0 -21   31.20    3.30
  -1   0  21   36.90    3.90
  -1   0  21   31.20    2.30
   0   0 -21   36.60    3.80
   0   0 -21   23.20    2.90
   0   0  21   35.60    2.10
   0   0  21   36.40    3.50
  -1   0 -21    9.60    2.70
   1   0  21    5.10    2.50
   1   0  21    5.80    1.00
  -2   0 -21   43.30    4.90
   2   0  21   40.40    4.40
   2   0  21   38.70    2.00
   3  -1 -21   83.09    2.90
   3  -1 -21   77.19    5.20
  -3   1  21   89.19    4.40
  -3   1  21   90.29    5.20
   2  -1 -21   75.89    5.00
  -2   1  21   75.39    3.70
  -2   1  21   68.89    4.90
   1  -1 -21   -0.10    2.30
  -1   1  21    0.20    1.20
  -1   1  21    0.20    2.00
   0  -1 -21   95.39    5.40
   0   1  21  101.19    5.10
   0   1  21   97.59    3.60
  -1  -1 -21    1.50    2.70
   1   1  21    0.00    2.10
   1   1  21   -0.10    1.00
  -2  -1 -21    7.50    3.20
   2   1  21    8.70    3.40
   2   1  21    6.50    1.30
   3  -2 -21    1.30    2.90
   3  -2 -21    0.30    1.00
  -3   2  21    1.10    1.90
  -3   2  21   -1.10    2.70
   2  -2 -21    0.50    2.50
  -2   2  21   -0.20    1.50
  -2   2  21    0.00    2.20
   1  -2 -21   99.89    5.20
  -1   2  21   94.39    3.90
  -1   2  21   97.39    5.50
   0  -2 -21   16.10    3.10
   0   2  21   17.50    1.70
   0   2  21   18.30    2.80
  -1  -2 -21    1.20    3.00
   1   2  21    1.90    2.60
   1   2  21    2.30    1.30
   2   2  21    2.00    2.10
   2   2  21    1.30    5.40
   3  -3 -21    1.30    3.20
   3  -3 -21    0.40    1.20
  -3   3  21   -0.30    2.80
  -3   3  21    0.90    2.20
   2  -3 -21   36.70    4.00
  -2   3  21   35.80    3.20
  -2   3  21   35.80    4.00
   1  -3 -21   96.39    5.70
  -1   3  21   87.79    4.00
  -1   3  21   86.79    5.20
   0  -3 -21   10.40    3.30
   0   3  21    8.30    2.70
   0   3  21    9.90    1.70
  -1  -3 -21    0.20    2.80
   1   3  21    1.00    3.20
   1   3  21   -0.20    2.80
   1   3  21    0.10    1.50
   2  -4 -21   25.00    3.90
  -2   4  21   28.60    3.50
  -2   4  21   21.80    2.60
   1  -4 -21   63.99    5.10
  -1   4  21   61.39    3.70
  -1   4  21   61.89    4.90
   0  -4 -21    3.60    3.00
   0   4  21    3.90    1.80
   0   4  21    5.40    3.20
   0  -5  22   45.20    5.00
   1   4 -22    1.40    3.00
  -1  -4  22    2.10    3.40
  -1  -4  22    2.60    1.70
   0   4 -22    0.50    2.90
   0  -4  22    1.00    1.40
   0  -4  22    2.60    2.90
  -1   4 -22    3.60    3.10
   1  -4  22    5.10    1.30
   1  -4  22    6.10    3.30
   2   3 -22    1.30    3.20
  -2  -3  22    1.60    1.80
  -2  -3  22    2.20    3.50
  -2  -3  22    2.80    3.10
   1   3 -22    2.10    2.90
  -1  -3  22    0.70    1.50
  -1  -3  22    3.20    3.10
   0   3 -22  111.79    6.00
   0  -3  22  133.39    6.20
   0  -3  22  131.89    6.60
   0  -3  22  126.89    4.30
  -1   3 -22  100.79    5.40
   1  -3  22   95.19    5.30
   1  -3  22   98.39    3.30
   2   2 -22   -1.50    2.50
   2   2 -22    0.30    2.50
  -2  -2  22    0.70    2.40
  -2  -2  22    0.90    1.60
  -2  -2  22    0.30    3.10
   1   2 -22   13.30    2.90
   1   2 -22   17.30    3.00
  -1  -2  22   18.00    3.00
  -1  -2  22   15.70    1.70
  -1  -2  22   14.30    3.20
   0   2 -22   24.60    3.20
   0  -2  22   35.40    3.80
   0  -2  22   31.30    2.10
  -1   2 -22   91.59    5.40
   1  -2  22   89.69    3.00
   1  -2  22   87.09    5.40
   3   1 -22   54.09    4.90
   3   1 -22   62.69    5.60
  -3  -1  22   64.79    4.10
  -3  -1  22   64.59    5.90
  -3  -1  22   59.69    5.40
   2   1 -22  261.17    9.40
   2   1 -22  251.47    8.90
  -2  -1  22  239.78    9.20
  -2  -1  22  242.18    7.70
   1   1 -22    0.70    2.20
   1   1 -22    1.20    2.40
  -1  -1  22    0.40    1.30
  -1  -1  22    0.80    2.20
   0   1 -22    5.00    2.40
   0   1 -22    5.20    2.60
   0  -1  22    6.70    1.20
   0  -1  22    4.00    2.30
  -1   1 -22    3.10    2.60
  -1   1 -22    1.50    2.80
   1  -1  22    1.00    1.00
   1  -1  22    1.50    2.60
   3   0 -22   52.09    5.30
  -3   0  22   62.59    5.40
  -3   0  22   56.79    4.00
   2   0 -22    2.30    2.50
   2   0 -22    1.40    2.60
  -2   0  22    2.80    1.60
  -2   0  22    0.10    2.30
   1   0 -22    1.70    2.20
   1   0 -22    2.30    2.60
  -1   0  22    1.50    2.40
  -1   0  22    1.40    1.30
   0   0 -22   37.10    4.30
   0   0  22   37.70    4.30
   0   0  22   40.70    2.40
  -1   0 -22    0.90    2.70
   1   0  22    1.70    1.00
   1   0  22    1.40    2.30
  -2   0 -22   72.99    5.90
   2   0  22   74.89    6.00
   2   0  22   76.59    2.80
   3  -1 -22   11.80    3.40
  -3   1  22    9.40    2.30
  -3   1  22    7.90    3.10
   2  -1 -22   15.70    3.20
  -2   1  22   13.80    3.10
  -2   1  22   15.80    2.10
   1  -1 -22  107.89    5.90
  -1   1  22  106.69    4.20
  -1   1  22  119.79    5.80
   0  -1 -22   14.30    3.00
   0   1  22   19.70    1.70
   0   1  22   14.60    2.80
  -1  -1 -22    8.50    2.90
   1   1  22    8.80    1.30
   1   1  22    9.80    2.90
  -3   2  22   39.10    3.20
  -3   2  22   36.70    4.20
   2  -2 -22   50.69    5.10
  -2   2  22   49.40    3.50
  -2   2  22   51.19    4.90
   1  -2 -22   16.10    3.30
  -1   2  22   17.00    3.00
  -1   2  22   16.80    1.90
   0  -2 -22    8.90    2.80
   0   2  22    8.70    1.60
   0   2  22   10.20    3.10
  -1  -2 -22   52.09    5.60
   1   2  22   48.70    2.90
   1   2  22   50.39    5.10
   2  -3 -22    4.50    2.80
  -2   3  22    8.30    2.10
  -2   3  22    3.20    2.90
   1  -3 -22    9.90    3.40
  -1   3  22    7.50    2.90
  -1   3  22   12.30    2.00
   0  -3 -22    9.90    3.40
   0   3  22    8.30    2.90
   0   3  22   12.40    1.90
   0  -4  23   22.10    4.30
   1   3 -23   62.99    6.10
  -1  -3  23   69.59    5.60
  -1  -3  23   75.49    6.10
  -1  -3  23   66.39    3.70
   0   3 -23    1.70    2.70
   0  -3  23    2.70    1.40
   0  -3  23    2.70    2.60
  -1   3 -23    1.60    2.70
   1  -3  23    0.00    1.10
   1  -3  23    0.10    2.90
   2   2 -23   26.30    3.80
  -2  -2  23   22.90    5.70
  -2  -2  23   19.50    3.90
  -2  -2  23   20.40    2.90
   1   2 -23    5.00    3.10
  -1  -2  23    7.40    3.20
  -1  -2  23    5.60    1.60
   0   2 -23    0.80    2.80
   0  -2  23    0.60    2.90
   0  -2  23    2.30    1.30
  -1   2 -23    7.20    3.20
   1  -2  23    4.40    1.10
   1  -2  23    4.10    3.10
   2   1 -23   28.40    3.80
   2   1 -23   28.90    4.00
  -2  -1  23   23.10    2.30
  -2  -1  23   27.00    3.80
   1   1 -23   48.80    4.70
   1   1 -23   58.59    5.00
  -1  -1  23   54.49    5.10
  -1  -1  23   49.20    3.00
   0   1 -23   54.99    4.80
   0   1 -23   42.80    4.40
   0  -1  23   43.30    4.30
   0  -1  23   49.00    2.60
  -1   1 -23    1.60    4.00
  -1   1 -23    0.10    2.90
   1  -1  23    0.60    1.00
   1  -1  23    0.90    2.90
   2   0 -23   21.20    3.60
   2   0 -23   22.20    3.80
  -2   0  23   25.30    3.70
  -2   0  23   22.30    2.30
   1   0 -23  330.17   11.20
   1   0 -23  335.27   11.30
  -1   0  23  319.27   11.20
  -1   0  23  339.77    9.60
   0   0 -23   15.60    3.20
   0   0  23   19.10    3.40
   0   0  23   23.20    2.30
  -1   0 -23   28.40    3.90
   1   0  23   40.40    4.20
   1   0  23   35.60    2.30
   2  -1 -23    0.00    3.00
  -2   1  23    0.20    1.80
  -2   1  23   -0.60    2.90
   1  -1 -23   58.99    4.70
  -1   1  23   57.69    4.80
  -1   1  23   61.79    3.30
   0  -1 -23    9.60    3.10
   0   1  23   10.30    1.60
   0   1  23   10.00    2.90
  -1  -1 -23   63.79    5.90
   1   1  23   63.29    5.50
   1   1  23   59.79    3.00
  -2   2  23    3.90    2.30
   1  -2 -23   65.59    5.60
  -1   2  23   62.29    3.60
  -1   2  23   74.19    5.60
   0  -2 -23   19.30    3.80
   0   2  23   17.60    3.30
   0   2  23   15.80    2.10
   0  -2  24   12.20    4.90
   0  -2  24   10.30    2.00
   1   1 -24   40.70    4.80
   0   1 -24    5.70    3.30
   0   1 -24    3.20    3.30
   0  -1  24    4.70    1.40
   0  -1  24    4.30    3.20
   1   0 -24   88.39    6.00
   0   0 -24    7.50    3.00
   0   0  24    8.60    1.80
   0   0  24    9.70    3.10
   1  -1 -24   34.30    6.00
   0   0   0    0.00    0.00
_computing_structure_solution     'SHELXT 2014/5 (Sheldrick, 2014)'
;
_shelx_hkl_checksum              44832
_shelx_res_file
;
TITL JTM851_0m_a.res in P-1
    JTM851_0m_a.res
    created by SHELXL-2016/6 at 09:08:23 on 06-Oct-2017
REM Old TITL JTM851_0m in P-1
REM SHELXT solution in P-1
REM R1 0.080,  Rweak 0.004,  Alpha 0.027,  Orientation as input
REM Formula found by SHELXT:  C13 N2 O2 S
CELL  0.71073   4.8078   7.7314  17.8011   93.412   94.564  103.050
ZERR    2.000   0.0003   0.0004   0.0010    0.001    0.001    0.001
LATT  1
SFAC C H N O S
UNIT 26 28 4 4 2
TEMP -173
SIZE 0.14 0.186 0.235
L.S. 5
BOND $H
LIST 4
FMAP 2
CONF
EQIV $1 -x+2, -y+1, -z
HTAB C6 N2_$1
EQIV $2 x-1, y, z
HTAB C10 O1_$2
ACTA 57
PLAN 5
WGHT    0.071500    0.014700
FVAR       0.86341
S1    5    0.365717    0.838088    0.227710    11.00000    0.01682    0.01777 =
         0.01610    0.00039    0.00186    0.00755
O1    4    0.776267    0.929585    0.372702    11.00000    0.01504    0.02498 =
         0.02164   -0.00263    0.00222    0.00242
O2    4    0.482915    0.753618    0.443748    11.00000    0.02071    0.02525 =
         0.01582    0.00102   -0.00070    0.00296
N1    3    0.629892    0.570475    0.236572    11.00000    0.01179    0.01516 =
         0.01274    0.00128    0.00181    0.00292
N2    3    0.775213    0.594099    0.085610    11.00000    0.01314    0.01702 =
         0.01286    0.00146    0.00110    0.00192
C1    1    0.558373    0.686824    0.192767    11.00000    0.01061    0.01397 =
         0.01323    0.00013    0.00053    0.00228
C2    1    0.777161    0.456093    0.204610    11.00000    0.01131    0.01389 =
         0.01224    0.00096    0.00103    0.00193
C3    1    0.853310    0.322863    0.247382    11.00000    0.01716    0.01727 =
         0.01601    0.00350    0.00292    0.00453
H3    2    0.786626    0.309399    0.297979    11.00000    0.02195
C4    1    1.007019    0.211264    0.216640    11.00000    0.02015    0.01495 =
         0.02071    0.00305    0.00005    0.00644
H4    2    1.050017    0.128002    0.245112    11.00000    0.03836
C5    1    1.092000    0.229052    0.143115    11.00000    0.01724    0.01767 =
         0.02082   -0.00292    0.00199    0.00642
H5    2    1.194003    0.147708    0.122613    11.00000    0.04933
C6    1    1.018016    0.356092    0.099800    11.00000    0.01546    0.01927 =
         0.01474   -0.00198    0.00161    0.00309
H6    2    1.075819    0.368990    0.049914    11.00000    0.02305
C7    1    0.855520    0.470488    0.129953    11.00000    0.01220    0.01515 =
         0.01215    0.00035    0.00096    0.00108
C8    1    0.626191    0.698911    0.115348    11.00000    0.01270    0.01560 =
         0.01305    0.00147   -0.00011    0.00166
C9    1    0.526345    0.829839    0.067233    11.00000    0.02169    0.02205 =
         0.01616    0.00532    0.00130    0.00784
H9A   2    0.313886    0.817366    0.064166    11.00000    0.03978
H9B   2    0.594362    0.949225    0.091063    11.00000    0.03142
H9C   2    0.588393    0.820055    0.018497    11.00000    0.03432
C10   1    0.303435    0.761905    0.319030    11.00000    0.01189    0.02038 =
         0.01578   -0.00122    0.00265    0.00385
H10A  2    0.250801    0.637409    0.318543    11.00000    0.02545
H10B  2    0.144656    0.804474    0.335975    11.00000    0.02480
C11   1    0.552013    0.826365    0.379070    11.00000    0.01609    0.01732 =
         0.01591   -0.00268    0.00274    0.00862
C12   1    0.699916    0.805826    0.508248    11.00000    0.02505    0.03555 =
         0.01779   -0.00139   -0.00458    0.00865
H12A  2    0.860235    0.763709    0.494666    11.00000    0.03322
H12B  2    0.750845    0.938488    0.514533    11.00000    0.02567
C13   1    0.569802    0.723367    0.575449    11.00000    0.05034    0.03347 =
         0.01950    0.00335   -0.00062    0.01155
H13A  2    0.699334    0.756233    0.617637    11.00000    0.04065
H13B  2    0.538885    0.600887    0.570369    11.00000    0.06306
H13C  2    0.389169    0.768237    0.582887    11.00000    0.05007
HKLF 4
REM  JTM851_0m_a.res in P-1
REM R1 =  0.0361 for    2989 Fo > 4sig(Fo)  and  0.0403 for all    3429 data
REM    219 parameters refined using      0 restraints
END
WGHT      0.0715      0.0147
REM Highest difference peak  0.512,  deepest hole -0.235,  1-sigma level  0.072
Q1    1   0.8212  0.4638  0.1664  11.00000  0.05    0.50
Q2    1   0.4334  0.8002  0.3477  11.00000  0.05    0.49
Q3    1   0.6064  0.6193  0.2200  11.00000  0.05    0.48
Q4    1   0.5963  0.7024  0.1527  11.00000  0.05    0.48
Q5    1   0.8366  0.3920  0.2272  11.00000  0.05    0.47
;
_shelx_res_checksum              34487
loop_
_space_group_symop_operation_xyz
'x, y, z'
'-x, -y, -z'
loop_
_atom_site_type_symbol
_atom_site_label
_atom_site_fract_x
_atom_site_fract_y
_atom_site_fract_z
_atom_site_U_iso_or_equiv
_atom_site_adp_type
_atom_site_calc_flag
_atom_site_occupancy
S S1 0.36572(5) 0.83809(3) 0.22771(2) 0.01635(10) Uani d 1
O O1 0.77627(17) 0.92958(11) 0.37270(5) 0.02107(19) Uani d 1
O O2 0.48291(17) 0.75362(11) 0.44375(4) 0.02113(19) Uani d 1
N N1 0.62989(18) 0.57047(11) 0.23657(5) 0.01322(19) Uani d 1
N N2 0.77521(19) 0.59410(12) 0.08561(5) 0.01459(19) Uani d 1
C C1 0.5584(2) 0.68682(14) 0.19277(6) 0.0128(2) Uani d 1
C C2 0.7772(2) 0.45609(14) 0.20461(6) 0.0126(2) Uani d 1
C C3 0.8533(2) 0.32286(14) 0.24738(6) 0.0166(2) Uani d 1
H H3 0.787(3) 0.3094(18) 0.2980(8) 0.022(3) Uiso d 1
C C4 1.0070(2) 0.21126(15) 0.21664(7) 0.0183(2) Uani d 1
H H4 1.050(3) 0.128(2) 0.2451(10) 0.038(4) Uiso d 1
C C5 1.0920(2) 0.22905(15) 0.14311(6) 0.0184(2) Uani d 1
H H5 1.194(4) 0.148(3) 0.1226(11) 0.049(5) Uiso d 1
C C6 1.0180(2) 0.35609(15) 0.09980(6) 0.0168(2) Uani d 1
H H6 1.076(3) 0.3690(19) 0.0499(8) 0.023(3) Uiso d 1
C C7 0.8555(2) 0.47049(14) 0.12995(6) 0.0135(2) Uani d 1
C C8 0.6262(2) 0.69891(14) 0.11535(6) 0.0141(2) Uani d 1
C C9 0.5263(3) 0.82984(16) 0.06723(6) 0.0194(2) Uani d 1
H H9A 0.314(4) 0.817(2) 0.0642(10) 0.040(4) Uiso d 1
H H9B 0.594(3) 0.949(2) 0.0911(9) 0.031(4) Uiso d 1
H H9C 0.588(3) 0.820(2) 0.0185(9) 0.034(4) Uiso d 1
C C10 0.3034(2) 0.76191(15) 0.31903(6) 0.0160(2) Uani d 1
H H10A 0.251(3) 0.637(2) 0.3185(8) 0.025(4) Uiso d 1
H H10B 0.145(3) 0.8045(19) 0.3360(8) 0.025(4) Uiso d 1
C C11 0.5520(2) 0.82636(14) 0.37907(6) 0.0158(2) Uani d 1
C C12 0.6999(3) 0.80583(19) 0.50825(7) 0.0264(3) Uani d 1
H H12A 0.860(3) 0.764(2) 0.4947(9) 0.033(4) Uiso d 1
H H12B 0.751(3) 0.938(2) 0.5145(8) 0.026(4) Uiso d 1
C C13 0.5698(4) 0.7234(2) 0.57545(8) 0.0343(3) Uani d 1
H H13A 0.699(4) 0.756(2) 0.6176(10) 0.041(5) Uiso d 1
H H13B 0.539(4) 0.601(3) 0.5704(12) 0.063(6) Uiso d 1
H H13C 0.389(4) 0.768(2) 0.5829(10) 0.050(5) Uiso d 1
loop_
_atom_site_aniso_label
_atom_site_aniso_U_11
_atom_site_aniso_U_22
_atom_site_aniso_U_33
_atom_site_aniso_U_12
_atom_site_aniso_U_13
_atom_site_aniso_U_23
S1 0.01682(16) 0.01777(16) 0.01610(15) 0.00755(11) 0.00186(10) 0.00039(10)
O1 0.0150(4) 0.0250(4) 0.0216(4) 0.0024(3) 0.0022(3) -0.0026(3)
O2 0.0207(4) 0.0253(4) 0.0158(4) 0.0030(3) -0.0007(3) 0.0010(3)
N1 0.0118(4) 0.0152(4) 0.0127(4) 0.0029(3) 0.0018(3) 0.0013(3)
N2 0.0131(4) 0.0170(4) 0.0129(4) 0.0019(3) 0.0011(3) 0.0015(3)
C1 0.0106(5) 0.0140(5) 0.0132(5) 0.0023(4) 0.0005(4) 0.0001(4)
C2 0.0113(4) 0.0139(5) 0.0122(5) 0.0019(4) 0.0010(4) 0.0010(3)
C3 0.0172(5) 0.0173(5) 0.0160(5) 0.0045(4) 0.0029(4) 0.0035(4)
C4 0.0202(5) 0.0150(5) 0.0207(5) 0.0064(4) 0.0000(4) 0.0030(4)
C5 0.0172(5) 0.0177(5) 0.0208(5) 0.0064(4) 0.0020(4) -0.0029(4)
C6 0.0155(5) 0.0193(5) 0.0147(5) 0.0031(4) 0.0016(4) -0.0020(4)
C7 0.0122(5) 0.0152(5) 0.0122(5) 0.0011(4) 0.0010(4) 0.0004(4)
C8 0.0127(5) 0.0156(5) 0.0130(5) 0.0017(4) -0.0001(4) 0.0015(4)
C9 0.0217(6) 0.0221(6) 0.0162(5) 0.0078(5) 0.0013(4) 0.0053(4)
C10 0.0119(5) 0.0204(6) 0.0158(5) 0.0039(4) 0.0026(4) -0.0012(4)
C11 0.0161(5) 0.0173(5) 0.0159(5) 0.0086(4) 0.0027(4) -0.0027(4)
C12 0.0250(6) 0.0356(7) 0.0178(6) 0.0087(5) -0.0046(5) -0.0014(5)
C13 0.0503(9) 0.0335(8) 0.0195(6) 0.0115(7) -0.0006(6) 0.0034(5)
loop_
_atom_type_symbol
_atom_type_description
_atom_type_scat_dispersion_real
_atom_type_scat_dispersion_imag
_atom_type_scat_source
C C 0.0033 0.0016 'International Tables Vol C Tables 4.2.6.8 and 6.1.1.4'
H H 0.0000 0.0000 'International Tables Vol C Tables 4.2.6.8 and 6.1.1.4'
N N 0.0061 0.0033 'International Tables Vol C Tables 4.2.6.8 and 6.1.1.4'
O O 0.0106 0.0060 'International Tables Vol C Tables 4.2.6.8 and 6.1.1.4'
S S 0.1246 0.1234 'International Tables Vol C Tables 4.2.6.8 and 6.1.1.4'
loop_
_geom_angle_atom_site_label_1
_geom_angle_atom_site_label_2
_geom_angle_atom_site_label_3
_geom_angle
C1 S1 C10 100.96(5)
C11 O2 C12 115.87(9)
C1 N1 C2 115.99(9)
C8 N2 C7 117.64(9)
N1 C1 C8 123.63(9)
N1 C1 S1 119.73(8)
C8 C1 S1 116.64(8)
N1 C2 C3 119.39(9)
N1 C2 C7 121.19(9)
C3 C2 C7 119.42(9)
C4 C3 C2 119.76(10)
C4 C3 H3 121.7(8)
C2 C3 H3 118.5(8)
C3 C4 C5 120.75(10)
C3 C4 H4 117.3(11)
C5 C4 H4 121.9(11)
C6 C5 C4 120.79(10)
C6 C5 H5 120.1(12)
C4 C5 H5 119.0(12)
C5 C6 C7 119.34(10)
C5 C6 H6 121.1(9)
C7 C6 H6 119.6(9)
N2 C7 C2 121.00(9)
N2 C7 C6 119.11(9)
C2 C7 C6 119.89(10)
N2 C8 C1 120.45(9)
N2 C8 C9 118.66(9)
C1 C8 C9 120.88(9)
C8 C9 H9A 113.1(10)
C8 C9 H9B 110.2(9)
H9A C9 H9B 101.0(13)
C8 C9 H9C 109.9(10)
H9A C9 H9C 110.8(13)
H9B C9 H9C 111.5(13)
C11 C10 S1 114.95(8)
C11 C10 H10A 107.2(9)
S1 C10 H10A 113.0(9)
C11 C10 H10B 106.9(9)
S1 C10 H10B 108.0(9)
H10A C10 H10B 106.2(12)
O1 C11 O2 123.78(10)
O1 C11 C10 127.14(10)
O2 C11 C10 109.05(9)
O2 C12 C13 107.04(11)
O2 C12 H12A 106.0(10)
C13 C12 H12A 113.7(10)
O2 C12 H12B 107.2(9)
C13 C12 H12B 112.8(9)
H12A C12 H12B 109.7(13)
C12 C13 H13A 109.5(11)
C12 C13 H13B 111.4(13)
H13A C13 H13B 103.8(16)
C12 C13 H13C 108.0(10)
H13A C13 H13C 110.2(15)
H13B C13 H13C 113.9(17)
loop_
_geom_bond_atom_site_label_1
_geom_bond_atom_site_label_2
_geom_bond_distance
S1 C1 1.7626(10)
S1 C10 1.7863(11)
O1 C11 1.2057(13)
O2 C11 1.3438(13)
O2 C12 1.4607(14)
N1 C1 1.3100(13)
N1 C2 1.3762(13)
N2 C8 1.3121(13)
N2 C7 1.3760(13)
C1 C8 1.4448(14)
C2 C3 1.4121(14)
C2 C7 1.4138(14)
C3 C4 1.3734(15)
C3 H3 0.983(14)
C4 C5 1.4071(16)
C4 H4 0.892(18)
C5 C6 1.3748(16)
C5 H5 0.954(19)
C6 C7 1.4153(14)
C6 H6 0.956(14)
C8 C9 1.4986(14)
C9 H9A 1.001(17)
C9 H9B 0.966(16)
C9 H9C 0.944(16)
C10 C11 1.5111(15)
C10 H10A 0.938(15)
C10 H10B 0.959(14)
C12 C13 1.5029(19)
C12 H12A 0.945(16)
C12 H12B 0.997(16)
C13 H13A 0.921(18)
C13 H13B 0.92(2)
C13 H13C 1.02(2)
loop_
_geom_hbond_atom_site_label_D
_geom_hbond_atom_site_label_H
_geom_hbond_atom_site_label_A
_geom_hbond_site_symmetry_A
_geom_hbond_distance_DH
_geom_hbond_distance_HA
_geom_hbond_distance_DA
_geom_hbond_angle_DHA
C6 H6 N2 2_765 0.956(14) 2.584(14) 3.5398(15) 179.1(12)
C10 H10B O1 1_455 0.959(14) 2.320(15) 3.2770(14) 175.2(12)
loop_
_geom_torsion_atom_site_label_1
_geom_torsion_atom_site_label_2
_geom_torsion_atom_site_label_3
_geom_torsion_atom_site_label_4
_geom_torsion
C2 N1 C1 C8 -0.08(15)
C2 N1 C1 S1 179.30(7)
C10 S1 C1 N1 -4.60(10)
C10 S1 C1 C8 174.83(8)
C1 N1 C2 C3 -177.86(9)
C1 N1 C2 C7 2.65(15)
N1 C2 C3 C4 -178.24(10)
C7 C2 C3 C4 1.26(16)
C2 C3 C4 C5 0.57(17)
C3 C4 C5 C6 -1.36(17)
C4 C5 C6 C7 0.29(17)
C8 N2 C7 C2 0.66(15)
C8 N2 C7 C6 -179.60(9)
N1 C2 C7 N2 -3.08(16)
C3 C2 C7 N2 177.42(9)
N1 C2 C7 C6 177.18(9)
C3 C2 C7 C6 -2.32(15)
C5 C6 C7 N2 -178.20(10)
C5 C6 C7 C2 1.54(16)
C7 N2 C8 C1 1.87(15)
C7 N2 C8 C9 -177.65(9)
N1 C1 C8 N2 -2.29(16)
S1 C1 C8 N2 178.31(8)
N1 C1 C8 C9 177.21(9)
S1 C1 C8 C9 -2.19(14)
C1 S1 C10 C11 81.32(9)
C12 O2 C11 O1 -0.45(16)
C12 O2 C11 C10 -178.80(9)
S1 C10 C11 O1 4.50(15)
S1 C10 C11 O2 -177.22(7)
C11 O2 C12 C13 175.03(10)

_cod_database_fobs_code 1548794
