#------------------------------------------------------------------------------
#$Date: 2018-02-01 10:07:44 +0200 (Thu, 01 Feb 2018) $
#$Revision: 206013 $
#$URL: file:///home/coder/svn-repositories/cod/cif/1/54/88/1548842.cif $
#------------------------------------------------------------------------------
#
# This file is available in the Crystallography Open Database (COD),
# http://www.crystallography.net/. The original data for this entry
# were provided by IUCr Journals, http://journals.iucr.org/.
#
# The file may be used within the scientific community so long as
# proper attribution is given to the journal article from which the
# data were obtained.
#
data_1548842
loop_
_publ_author_name
'El-Hiti, Gamal A.'
'Abdel-Wahab, Bakr F.'
'Alotaibi, Mohammad Hayal'
'Hegazy, Amany S.'
'Kariuki, Benson M.'
_publ_section_title
;
 (<i>E</i>)-2-Benzoyl-3-[1-phenyl-3-(thiophen-2-yl)-1<i>H</i>-pyrazol-4-yl]acrylonitrile
;
_journal_coeditor_code           IS4023
_journal_issue                   1
_journal_name_full               IUCrData
_journal_page_first              x180171
_journal_paper_doi               10.1107/S2414314618001712
_journal_volume                  3
_journal_year                    2018
_chemical_formula_iupac          'C23 H15 N3 O S'
_chemical_formula_moiety         'C23 H15 N3 O S'
_chemical_formula_sum            'C23 H15 N3 O S'
_chemical_formula_weight         381.44
_chemical_name_systematic
(<i>E</i>)-2-Benzoyl-3-[1-phenyl-3-(thiophen-2-yl)-1<i>H</i>-pyrazol-4-yl]acrylonitrile
_space_group_crystal_system      monoclinic
_space_group_IT_number           14
_space_group_name_Hall           '-P 2yn'
_space_group_name_H-M_alt        'P 1 21/n 1'
_symmetry_space_group_name_Hall  '-P 2yn'
_symmetry_space_group_name_H-M   'P 1 21/n 1'
_atom_sites_solution_hydrogens   geom
_audit_creation_method           SHELXL-2018/1
_cell_angle_alpha                90
_cell_angle_beta                 94.423(5)
_cell_angle_gamma                90
_cell_formula_units_Z            8
_cell_length_a                   19.2666(10)
_cell_length_b                   9.7769(4)
_cell_length_c                   20.3265(12)
_cell_measurement_reflns_used    4056
_cell_measurement_temperature    296(2)
_cell_measurement_theta_max      26.1670
_cell_measurement_theta_min      3.4740
_cell_volume                     3817.5(3)
_computing_cell_refinement
;
CrysAlis PRO (Rigaku Oxford Diffraction, 2015)
;
_computing_data_collection
;
CrysAlis PRO (Rigaku Oxford Diffraction, 2015)
;
_computing_data_reduction
;
CrysAlis PRO (Rigaku Oxford Diffraction, 2015)
;
_computing_molecular_graphics
;
ORTEP-3 for Windows (Farrugia, 2012)
;
_computing_publication_material
;
WinGX (Farrugia, 2012)
;
_computing_structure_refinement
;
SHELXL2018 (Sheldrick, 2015)
;
_computing_structure_solution
;
SHELXS (Sheldrick, 2008)
;
_diffrn_ambient_temperature      296(2)
_diffrn_measured_fraction_theta_full 0.999
_diffrn_measured_fraction_theta_max 0.837
_diffrn_measurement_device_type
'Rigaku Oxford Diffraction SuperNova, Dual, Cu at zero, Atlas'
_diffrn_measurement_method       '\w scans'
_diffrn_radiation_type           MoK\a
_diffrn_radiation_wavelength     0.71073
_diffrn_reflns_av_R_equivalents  0.0382
_diffrn_reflns_limit_h_max       26
_diffrn_reflns_limit_h_min       -19
_diffrn_reflns_limit_k_max       13
_diffrn_reflns_limit_k_min       -12
_diffrn_reflns_limit_l_max       26
_diffrn_reflns_limit_l_min       -26
_diffrn_reflns_number            22054
_diffrn_reflns_theta_full        25.242
_diffrn_reflns_theta_max         29.937
_diffrn_reflns_theta_min         2.895
_diffrn_standards_decay_%        0
_diffrn_standards_interval_count 0
_diffrn_standards_interval_time  0
_diffrn_standards_number         0
_exptl_absorpt_coefficient_mu    0.188
_exptl_absorpt_correction_T_max  0.990
_exptl_absorpt_correction_T_min  0.563
_exptl_absorpt_correction_type   numerical
_exptl_absorpt_process_details
;
(CrysAlis PRO; Rigaku Oxford Diffraction, 2015)
;
_exptl_crystal_colour            yellow
_exptl_crystal_density_diffrn    1.327
_exptl_crystal_description       plate
_exptl_crystal_F_000             1584
_exptl_crystal_size_max          0.278
_exptl_crystal_size_mid          0.151
_exptl_crystal_size_min          0.056
_refine_diff_density_max         0.160
_refine_diff_density_min         -0.299
_refine_ls_extinction_method     none
_refine_ls_goodness_of_fit_ref   1.019
_refine_ls_hydrogen_treatment    constr
_refine_ls_matrix_type           full
_refine_ls_number_parameters     524
_refine_ls_number_reflns         9267
_refine_ls_number_restraints     30
_refine_ls_restrained_S_all      1.021
_refine_ls_R_factor_all          0.1263
_refine_ls_R_factor_gt           0.0570
_refine_ls_shift/su_max          0.000
_refine_ls_shift/su_mean         0.000
_refine_ls_structure_factor_coef Fsqd
_refine_ls_weighting_details
'w=1/[\s^2^(Fo^2^)+(0.0637P)^2^+0.3861P] where P=(Fo^2^+2Fc^2^)/3'
_refine_ls_weighting_scheme      calc
_refine_ls_wR_factor_gt          0.1246
_refine_ls_wR_factor_ref         0.1669
_reflns_number_gt                4750
_reflns_number_total             9267
_reflns_threshold_expression     'I > 2\s(I)'
_cod_data_source_file            is4023sup1.cif
_cod_data_source_block           I
_cod_database_code               1548842
_shelx_space_group_comment
;
The symmetry employed for this shelxl refinement is uniquely defined
by the following loop, which should always be used as a source of
symmetry information in preference to the above space-group names.
They are only intended as comments.
;
_shelx_estimated_absorpt_t_min   0.950
_shelx_estimated_absorpt_t_max   0.990
_shelx_hkl_file
;
   0   0  -3 8.87167 11.6443   3
   0   0  -4 31488.6 376.317   3
   0   0  -5 362.053 55.9933   3
   0   0  -6 35371.7 489.398   3
   0   0  -7 1477.52 115.408   3
   0   0   8 2056.52 146.339   3
   0   0  -8 1846.75 130.432   3
   0   0  -9 52.9766 33.1563   3
   0   0 -10 656.233 84.6656   3
   0   0 -11 143.099 50.7959   3
   0   0 -12 387.187 75.3037   3
   0   0  13 399.546 92.2388   3
   0   0 -13 141.698 51.3979   3
   0   0  14 348.094 86.7127   3
   0   0 -14 208.022 61.0788   3
   0   0  15 210.854 69.8570   3
   0   0 -15 70.6545 38.1581   3
   0   0  16 924.921 141.372   3
   0   0  17 97.6517 63.1897   3
   0   0  18 1756.20 212.286   3
   0   0  19 318.513 105.913   3
   0   0  20 181.466 84.1480   3
   0   0  21 176.209 88.5252   3
   0   0  22 796.281 163.485   3
   0   0  23 80.6380 54.0973   3
   0   0  24 159.649 67.9575   3
   0   0  25 55.6501 56.1641   3
   0   1  -2 1225.55 60.5924   3
   0   1   3 21943.7 292.425   3
   0   1  -3 21384.0 294.753   3
   0  -1  -3 22027.7 286.083   3
   0  -1  -4 251.016 36.8108   3
   0   1  -4 193.661 34.1281   3
   0   1   4 260.566 40.7441   3
   0  -1  -5 8885.55 225.251   3
   0   1   5 9456.42 243.274   3
   0   1  -5 8879.07 232.895   3
   0   1  -6 1497.60 105.128   3
   0   1   6 1427.87 103.326   3
   0  -1  -6 1429.65 98.6449   3
   0   1  -7 244.561 46.7839   3
   0  -1  -7 204.899 40.1699   3
   0   1   7 287.462 53.5130   3
   0   1  -8 8772.34 293.064   3
   0   1   8 9111.15 300.751   3
   0  -1  -8 8584.41 277.973   3
   0   1   9 559.057 84.7195   3
   0  -1  -9 484.050 72.6703   3
   0   1  -9 464.517 75.9729   3
   0   1 -10 2143.04 160.295   3
   0  -1 -10 2089.74 153.709   3
   0   1 -11 2661.03 189.914   3
   0  -1 -11 2479.24 177.951   3
   0   1 -12 1438.29 142.233   3
   0  -1 -12 1230.34 132.311   3
   0   1  13-30.8076 41.6929   3
   0   1 -13 57.2556 40.7421   3
   0  -1 -13-15.1574 37.7678   3
   0  -1  14 14.6931 27.5859   3
   0  -1 -14-18.5171 20.5005   3
   0   1 -14 68.9740 36.3308   3
   0   1  14 69.9339 50.6011   3
   0   1 -15 414.703 89.9895   3
   0  -1  15 470.699 100.236   3
   0  -1 -15 283.916 74.6315   3
   0   1  15 341.931 86.4823   3
   0   1  16 339.505 94.4015   3
   0  -1  16 407.609 96.9852   3
   0   1  17 237.483 87.4717   3
   0  -1  17 104.494 57.9791   3
   0  -1  18 387.348 98.9342   3
   0   1  18 376.826 97.0780   3
   0  -1  19 278.433 99.2265   3
   0   1  19 235.457 90.6064   3
   0   1  20-29.2169 29.6787   3
   0  -1  20-58.3329 62.9457   3
   0  -1  21 454.969 124.863   3
   0   1  21 322.102 116.751   3
   0   1  22 150.610 63.2117   3
   0  -1  22 210.591 88.5374   3
   0   1  23 153.022 85.4177   3
   0  -1  23 11.3436 50.3574   3
   0  -1  24 47.5197 71.7295   3
   0   1  24 65.5918 77.2861   3
   0  -1  25-31.7913 43.4845   3
   0   1  25 13.6663 48.5623   3
   0   1  26 1.32179 34.2812   3
   0  -2   0 2066.79 74.3817   2
   0   2   0 2041.92 71.6728   2
   0   2  -1 1872.16 76.0832   2
   0  -2   1 1944.60 80.0451   2
   0  -2  -1 1947.86 69.2878   2
   0   2   1 1929.22 70.2675   1
   0   2   1 1964.48 66.4195   2
   0   2   2 5275.58 110.703   2
   0  -2  -2 4882.07 115.436   2
   0   2  -2 5023.83 143.686   2
   0   2   2 5038.95 133.448   1
   0  -2  -2 4319.02 117.970   1
   0  -2   2 5078.43 145.279   3
   0   2  -3 4763.73 155.362   3
   0  -2   3 4804.61 159.577   3
   0  -2  -3 4721.94 138.474   1
   0  -2  -3 4719.18 120.960   2
   0  -2  -4 3541.72 143.222   3
   0   2  -4 3176.28 141.674   3
   0  -2   4 3277.86 141.686   3
   0  -2  -4 3149.01 110.139   2
   0   2  -5 2355.59 128.586   3
   0  -2   5 2327.59 126.657   3
   0  -2  -5 2419.45 124.455   3
   0   2  -6 1474.68 111.850   3
   0  -2  -6 1493.32 105.900   3
   0   2   6 1435.75 109.198   3
   0  -2   6 1445.89 108.252   3
   0  -2  -7 317.880 53.5497   3
   0   2  -7 281.603 55.9845   3
   0  -2   7 267.390 59.8359   3
   0   2   7 257.629 51.8235   3
   0   2   8 23.0911 24.8311   3
   0  -2  -8 19.1969 23.9165   3
   0   2  -8 61.4520 32.2773   3
   0   2  -9 537.594 82.6359   3
   0  -2  -9 559.295 77.8139   3
   0   2   9 476.425 82.8782   3
   0   2  10 6313.75 290.146   3
   0   2 -10 5889.32 278.476   3
   0  -2 -10 6103.04 265.948   3
   0   2 -11 2308.79 179.292   3
   0  -2 -11 2057.02 159.910   3
   0   2 -12-42.4608 43.3791   3
   0  -2 -12 12.7437 18.1386   3
   0   2 -13 70.0909 45.3306   3
   0  -2 -13 91.2977 41.9778   3
   0   2  13 104.259 45.1206   3
   0  -2  13 69.4368 28.8030   3
   0   2  14 215.767 70.1279   3
   0  -2 -14 248.412 61.9136   3
   0  -2  14 315.762 83.0529   3
   0   2 -14 400.926 87.5223   3
   0   2  15 281.082 84.5692   3
   0  -2 -15 264.094 70.7542   3
   0  -2  15 398.130 95.3321   3
   0   2  16 4430.62 320.400   3
   0  -2  16 4202.63 304.452   3
   0   2  17 705.815 134.071   3
   0  -2  17 602.787 121.069   3
   0  -2  18 1291.23 182.030   3
   0   2  18 1251.88 186.589   3
   0   2  19 573.254 127.409   3
   0  -2  19 519.076 123.503   3
   0   2  20 822.584 166.256   3
   0  -2  20 975.303 177.677   3
   0  -2  21 839.724 162.622   3
   0   2  21 1212.57 208.596   3
   0   2  22 325.732 112.969   3
   0  -2  22 229.190 94.8938   3
   0   2  23 22.0047 35.0725   3
   0  -2  23-106.055 70.2968   3
   0   2  24-59.1438 86.1180   3
   0  -2  24-17.9357 34.2156   3
   0   2  25 56.7290 66.4992   3
   0  -2  25 181.993 100.891   3
   0   2  26 92.9585 59.3999   3
   0  -3   0-18.6821 16.0958   2
   0   3   0-7.30759 10.2950   2
   0   3   1 1450.14 70.5094   2
   0  -3  -1 1469.44 73.8725   2
   0   3  -1 1394.67 77.3792   2
   0  -3   1 1347.41 77.9230   2
   0   3   1 1261.47 69.6312   1
   0  -3   2 489.185 54.0003   3
   0   3   2 426.034 45.2804   1
   0  -3  -2 526.015 44.9300   2
   0   3   2 565.296 43.4253   2
   0  -3  -2 533.682 46.3666   1
   0   3  -2 497.556 51.6603   2
   0  -3   3 202.609 38.1548   3
   0  -3  -3 232.021 31.4180   2
   0   3   3 266.711 33.1254   2
   0  -3  -3 204.067 31.9384   1
   0   3  -3 247.118 44.2182   2
   0  -3  -4 419.485 48.9780   1
   0   3  -4 389.185 55.9977   2
   0  -3  -4 403.981 42.8437   2
   0  -3   4 408.765 57.5704   3
   0   3  -4 419.521 57.0571   3
   0  -3   5 1017.69 93.0231   3
   0   3  -5 1051.76 93.7737   3
   0  -3  -5 1193.74 78.0904   2
   0  -3  -5 1070.00 83.7337   1
   0  -3  -5 1035.13 90.3772   3
   0  -3   6 200.915 48.2786   3
   0  -3  -6 291.556 40.6189   2
   0   3  -6 198.339 46.5097   3
   0  -3  -6 225.063 43.1905   3
   0  -3   7 4579.83 217.180   3
   0  -3  -7 4754.83 210.746   3
   0  -3  -7 4326.69 173.237   2
   0   3  -7 4315.27 214.798   3
   0  -3  -8 7166.11 270.842   3
   0   3  -8 6756.97 282.583   3
   0  -3   8 6995.96 280.353   3
   0   3  -9 2623.28 187.917   3
   0  -3  -9 2634.92 171.124   3
   0  -3 -10 60.7010 29.4897   3
   0   3 -10 52.8735 24.6806   3
   0  -3  10 168.065 58.5279   3
   0  -3 -11-10.0598 27.9876   3
   0   3 -11 8.90664 20.8654   3
   0  -3  11 31.0634 29.2348   3
   0  -3  12 68.0052 45.0013   3
   0   3 -12-10.4999 29.3144   3
   0  -3 -12 15.7214 24.7973   3
   0  -3 -13 619.233 98.0434   3
   0  -3  13 566.590 101.214   3
   0   3  13 527.815 100.715   3
   0   3 -13 736.862 118.049   3
   0  -3 -14 868.790 120.766   3
   0  -3  14 937.778 136.621   3
   0   3  14 1073.43 148.510   3
   0   3 -14 916.996 136.176   3
   0  -3 -15 12948.0 486.616   3
   0  -3  15 13103.7 521.383   3
   0   3  15 12812.2 537.474   3
   0   3  16 1186.01 172.040   3
   0  -3  16 1169.77 165.095   3
   0   3  17 509.640 115.868   3
   0  -3  17 501.432 109.312   3
   0  -3  18 117.101 70.9236   3
   0   3  18 21.4245 60.7287   3
   0   3  19 226.975 78.8780   3
   0  -3  19 45.5506 37.1312   3
   0  -3  20 312.154 107.337   3
   0  -3  21 298.376 120.330   3
   0  -3  22-111.848 67.4123   3
   0  -3  23-6.11381 46.7269   3
   0  -3  24 164.138 96.4830   3
   0  -4   0 20444.4 333.703   2
   0   4   0 20494.9 317.506   2
   0  -4   1 3094.35 133.859   2
   0  -4  -1 2942.69 122.635   2
   0   4   1 3025.43 117.405   2
   0   4   1 2960.08 120.446   1
   0   4  -1 2895.90 126.047   2
   0  -4   2 790.026 75.1620   3
   0   4   2 843.159 61.5756   2
   0   4   2 740.779 65.7241   1
   0  -4  -2 815.847 64.2720   2
   0   4  -2 915.155 75.8412   2
   0  -4   2 788.798 71.5576   2
   0   4   3 1794.11 87.9627   2
   0  -4  -3 1521.92 91.1381   2
   0  -4  -3 1781.43 99.9335   1
   0   4  -3 1746.47 114.647   2
   0  -4   3 1636.43 114.648   3
   0   4   3 1725.31 108.451   1
   0  -4  -4 10205.0 241.363   2
   0   4  -4 9886.93 287.264   2
   0  -4   4 10133.5 295.388   3
   0  -4  -4 9927.50 244.322   1
   0  -4   5 5024.59 220.174   3
   0  -4  -5 4981.60 186.345   1
   0   4  -5 5239.40 220.612   2
   0  -4  -5 5256.40 180.281   2
   0  -4   6 95.5652 42.5380   3
   0   4  -6 173.756 49.1692   2
   0  -4  -6 102.650 36.3827   3
   0  -4  -6 91.6692 28.4237   1
   0  -4  -6 142.438 32.6964   2
   0  -4  -7 1487.34 125.188   3
   0  -4  -7 1376.09 109.980   1
   0  -4   7 1335.35 126.212   3
   0  -4  -7 1437.35 100.656   2
   0   4  -7 1439.09 130.934   3
   0   4  -7 1585.85 135.482   2
   0  -4  -8 83.7812 32.5433   3
   0   4  -8 78.5091 34.5644   3
   0  -4   8 41.8239 35.2244   3
   0  -4  -8 60.0668 19.9346   2
   0  -4  -9 1042.97 95.7887   2
   0  -4   9 1202.24 129.701   3
   0   4  -9 1180.35 130.332   3
   0  -4  -9 1035.37 114.125   3
   0  -4 -10 3760.37 195.988   2
   0   4 -10 3969.77 246.547   3
   0  -4  10 4024.16 241.598   3
   0  -4 -10 4250.78 234.373   3
   0  -4 -11 2755.28 172.988   2
   0  -4  11 2906.50 215.198   3
   0   4 -11 3047.20 226.824   3
   0  -4 -11 2910.62 202.155   3
   0  -4 -12 28.0213 19.5843   2
   0  -4  12 37.3566 29.8432   3
   0   4 -12 69.8261 52.4203   3
   0  -4 -12 67.9155 35.8303   3
   0  -4  13 3674.85 264.562   3
   0   4 -13 4038.98 279.672   3
   0  -4 -13 3693.92 247.855   3
   0  -4 -14 746.421 114.226   3
   0  -4  14 692.088 116.197   3
   0  -4  15 417.302 97.6062   3
   0  -4 -15 442.113 94.2562   3
   0  -4  16 408.407 106.545   3
   0  -4  17 1228.80 178.045   3
   0  -4  18 106.674 56.7589   3
   0  -4  19 835.668 154.175   3
   0  -4  20 502.773 130.742   3
   0  -4  21 244.105 97.1494   3
   0  -4  22-67.6256 57.5219   3
   0  -4  23-29.3162 56.1255   3
   0  -4  24 5.49456 47.6064   3
   0  -5   0-1.53853 14.4415   2
   0   5   0 32.2748 21.9835   1
   0   5   0 16.7020 16.7421   2
   0   5   1 14.8896 19.5997   1
   0   5  -1 7.64930 16.8470   2
   0  -5  -1-1.39700 16.1399   2
   0  -5   1 23.7245 18.8135   2
   0   5   1 1.50404 11.1490   2
   0  -5   2 109.299 32.3422   2
   0  -5   2 39.9414 20.5172   3
   0   5   2 93.0421 24.1779   2
   0  -5  -2 109.107 27.7854   2
   0   5  -2 105.242 30.7234   2
   0   5   2 99.4967 31.5740   1
   0   5  -3 14315.3 347.064   2
   0  -5  -3 14862.5 309.814   2
   0   5   3 15129.0 283.674   2
   0  -5   3 14625.3 366.255   3
   0   5   3 14766.3 339.181   1
   0  -5  -4 998.819 90.5619   1
   0   5  -4 1025.62 100.173   2
   0  -5  -4 1048.03 84.9552   2
   0   5   4 1167.74 78.3450   2
   0  -5   4 1036.93 101.441   3
   0  -5   5 2367.08 161.481   3
   0  -5  -5 2287.46 129.949   1
   0   5  -5 2371.32 156.692   2
   0  -5  -5 2262.31 129.450   2
   0  -5   6 12381.1 383.367   3
   0  -5  -6 12620.0 315.187   2
   0   5  -6 12746.1 386.179   2
   0  -5  -7 204.180 42.1566   2
   0  -5  -7 235.869 54.5926   3
   0  -5   7 227.054 60.8105   3
   0  -5   8 139.603 53.3632   3
   0  -5  -8 98.9563 35.9329   1
   0  -5  -8 139.717 37.9038   2
   0  -5  -8 97.8766 43.2191   3
   0  -5  -9 1627.80 125.322   2
   0   5  -9 1354.70 142.912   2
   0  -5   9 1620.55 157.177   3
   0  -5  -9 1597.21 148.452   3
   0  -5  -9 1659.92 138.568   1
   0   5 -10 294.406 75.0689   3
   0  -5  10 280.838 73.8937   3
   0  -5 -10 271.681 58.5035   3
   0  -5 -10 291.755 61.0470   1
   0  -5 -10 349.171 60.9226   2
   0   5 -10 324.152 82.0959   2
   0  -5 -11 141.813 53.9677   1
   0   5 -11 138.101 53.4446   3
   0   5 -11 114.062 52.7727   2
   0  -5 -11 177.557 55.5230   3
   0  -5 -11 136.977 40.7931   2
   0  -5  11 173.382 66.8576   3
   0  -5 -12 6831.46 288.268   2
   0  -5 -12 6914.72 334.673   3
   0   5 -12 6851.28 364.641   3
   0  -5  12 6921.76 356.036   3
   0   5 -12 6413.28 337.467   2
   0  -5 -13 333.358 66.5367   2
   0  -5  13 382.160 93.2761   3
   0   5 -13 365.180 84.4504   2
   0  -5 -13 531.673 98.8592   3
   0  -5 -14 1542.78 149.555   2
   0  -5 -14 1386.71 161.022   3
   0  -5  14 1408.70 174.088   3
   0  -5 -15 156.745 56.6130   3
   0  -5  15 174.087 74.3004   3
   0  -5 -15 181.366 53.8293   2
   0  -5  16 248.972 83.6642   3
   0  -5  17 77.9352 67.7104   3
   0  -5  18 451.209 114.827   3
   0  -5  19 1404.30 204.162   3
   0  -5  20 6.64184 35.5082   3
   0  -5  21-23.1340 57.3635   3
   0   5 -22 50.8804 61.1424   2
   0  -5  22-5.68543 54.5009   3
   0  -5  23 0.37795 38.9737   3
   0   5 -23 14.8460 43.6625   2
   0   6   0 2120.28 126.553   2
   0  -6   0 2254.90 137.957   2
   0   6   0 2275.39 132.424   1
   0  -6  -1 270.837 49.1127   2
   0   6  -1 193.879 41.0135   2
   0   6   1 182.252 41.4445   1
   0   6   1 178.014 35.5363   2
   0  -6   1 152.476 36.6112   2
   0  -6   2 27.5940 20.2829   3
   0   6  -2 27.9672 20.0725   2
   0  -6  -2 43.9020 17.3353   2
   0   6   2 63.5074 21.1430   2
   0   6   2 43.6060 25.9932   1
   0   6   3 148.941 30.8026   2
   0   6   3 146.165 38.7224   1
   0  -6  -3 166.509 35.1213   2
   0  -6   3 183.337 50.0390   3
   0   6  -3 170.119 39.5353   2
   0   6   4 1830.64 106.368   2
   0  -6   4 1651.72 136.898   3
   0  -6  -4 1784.40 117.879   2
   0   6  -4 1765.25 134.059   2
   0  -6   5 35.8519 28.1842   3
   0   6  -5 29.0646 20.6428   2
   0  -6  -5 51.4243 20.3813   2
   0  -6  -6 1572.58 117.753   2
   0  -6  -6 1330.99 117.255   1
   0  -6   6 1689.67 148.907   3
   0  -6  -7 2722.76 190.506   3
   0  -6  -7 2676.60 158.599   2
   0  -6  -7 2771.05 165.462   1
   0  -6   7 2473.70 188.602   3
   0  -6   8 553.445 91.7337   3
   0   6  -8 593.838 98.0716   2
   0  -6  -8 706.973 87.1049   1
   0  -6  -8 664.993 81.1911   2
   0  -6  -8 635.510 96.6626   3
   0  -6  -9 66.0466 35.2150   3
   0   6  -9 7.94422 36.7243   2
   0  -6   9 164.953 56.5778   3
   0  -6  -9 74.8884 30.8038   1
   0  -6  -9 69.1786 30.4195   2
   0  -6 -10 103.418 41.3490   3
   0   6 -10 54.9386 46.2867   2
   0  -6  10 70.6653 42.0406   3
   0  -6 -10 59.7426 29.3466   2
   0  -6 -10 94.5147 41.5502   1
   0  -6 -11 359.059 67.3600   2
   0  -6  11 366.207 85.9014   3
   0   6 -11 391.286 87.8167   2
   0  -6 -11 381.767 84.3978   3
   0  -6 -11 375.923 72.8132   1
   0  -6 -12 1438.25 164.619   3
   0   6 -12 1498.08 169.984   2
   0  -6 -12 1468.30 138.767   2
   0  -6  12 1489.24 170.969   3
   0   6 -13 1452.96 174.736   2
   0  -6 -13 1452.06 162.971   3
   0  -6 -13 1270.96 133.109   2
   0  -6  13 1561.79 184.620   3
   0  -6  14 318.738 93.3337   3
   0  -6 -14 173.131 58.3738   3
   0  -6 -14 156.325 52.5903   2
   0   6 -14 256.295 84.0897   2
   0  -6 -15 173.802 62.8007   3
   0  -6 -15 189.377 58.5066   2
   0   6 -15 199.251 76.6895   2
   0  -6  15 302.586 90.3838   3
   0   6 -16-9.77829 35.4996   2
   0  -6  16 55.9265 50.1760   3
   0   6 -17 91.0772 50.0497   2
   0  -6  17 20.7772 48.8229   3
   0   6 -18 297.360 89.4158   2
   0  -6  18 217.525 84.3223   3
   0  -6  19 339.231 106.799   3
   0   6 -19 190.349 83.0899   2
   0  -6  20-15.6862 41.2369   3
   0   6 -20-24.2927 39.5972   2
   0   6 -21-24.3399 43.1372   2
   0  -6  21-56.6258 77.9076   3
   0  -6  22 210.477 100.103   3
   0   6 -22 4.38477 37.9373   2
   0  -7   0-0.37695 24.3504   2
   0   7   0 30.2025 25.8074   1
   0   7   0 5.67727 14.7404   2
   0   7   1 338.290 59.6886   1
   0  -7   1 370.351 66.5141   3
   0  -7   1 411.010 63.2876   2
   0   7  -1 377.183 59.1316   2
   0   7  -1 434.106 66.5883   1
   0   7   1 436.098 60.1880   2
   0  -7  -1 390.311 61.9003   2
   0  -7  -2 27.5795 20.7106   2
   0   7   2 40.4975 27.6214   1
   0   7  -2 21.7475 15.1691   2
   0   7   2 34.1479 18.5448   2
   0  -7   2 52.1233 35.3101   3
   0  -7  -3-7.28862 13.7371   2
   0  -7   3-25.8090 24.0096   3
   0   7  -3-9.21163 17.7039   2
   0   7   3 12.1373 11.9592   2
   0   7   4 2501.90 132.657   2
   0  -7   4 2556.94 186.492   3
   0  -7  -4 2397.41 145.132   2
   0  -7  -5 1532.40 119.461   2
   0  -7   5 1651.05 156.887   3
   0  -7  -6 624.975 78.9512   2
   0  -7   6 700.097 104.877   3
   0  -7  -7 24.5126 16.7022   2
   0  -7   7 35.8018 40.5814   3
   0   7  -7 33.9995 30.8767   2
   0  -7  -8 28.2774 22.5849   1
   0  -7  -8 38.1958 20.5943   3
   0   7  -8 15.5407 31.4998   2
   0  -7   8 21.3445 37.2497   3
   0  -7  -8-2.07590 14.4734   2
   0  -7  -9 191.229 46.2524   1
   0   7  -9 142.998 48.9507   2
   0  -7  -9 164.420 41.0404   2
   0  -7  -9 138.522 44.9790   3
   0  -7   9 156.649 60.7846   3
   0  -7 -10 975.956 113.796   2
   0   7 -10 970.852 139.436   2
   0  -7 -10 996.568 130.825   3
   0  -7  10 1098.30 148.029   3
   0  -7 -11 247.430 67.2095   3
   0  -7  11 331.064 85.5820   3
   0   7 -11 268.114 81.6799   2
   0  -7 -11 238.667 57.9967   2
   0  -7  12 65.0731 66.0348   3
   0   7 -12 241.192 77.1461   2
   0  -7 -12 136.917 47.9026   2
   0  -7 -12 119.831 55.7021   3
   0  -7  13 272.222 90.6843   3
   0  -7 -13 387.041 89.9396   3
   0   7 -13 251.884 82.5321   2
   0  -7 -13 299.879 68.2299   2
   0   7 -14-0.88909 45.5534   2
   0  -7  14-25.5418 49.8901   3
   0  -7 -14 53.6257 35.1803   3
   0  -7 -14 95.5742 51.6356   2
   0   7 -15-2.79661 37.4329   2
   0  -7  15 3.02043 48.8039   3
   0  -7  16 145.915 67.7659   3
   0   7 -16 115.624 66.3941   2
   0  -7  17 244.157 86.0684   3
   0   7 -17 167.477 71.3391   2
   0   7 -18-31.6403 50.2295   2
   0  -7  18 18.3965 44.8300   3
   0   7 -19-25.0580 32.8740   2
   0  -7  19 78.8872 48.8016   3
   0  -7  20-10.2773 37.9025   3
   0   7 -20 36.2636 36.1805   2
   0   7 -21-15.5054 42.1274   2
   0  -7  21-5.13041 41.0676   3
   0   7 -22 389.341 125.894   2
   0  -8   0 522.872 77.6532   2
   0   8   0 421.419 67.1105   2
   0   8   0 487.172 74.7592   1
   0  -8  -1 134.508 41.5222   2
   0  -8   1 109.704 41.8568   3
   0   8   1 137.759 39.5758   2
   0   8   1 110.214 37.8883   1
   0   8  -1 114.934 38.5632   1
   0   8  -1 168.318 42.6623   2
   0   8   2 605.173 71.8156   2
   0  -8  -2 576.177 79.2972   2
   0  -8   2 601.896 92.0132   3
   0   8  -2 727.694 91.3382   1
   0   8   2 740.209 95.6353   1
   0  -8   3 5701.78 286.859   3
   0   8   3 5505.49 268.382   1
   0   8   3 6033.73 217.309   2
   0  -8  -3 5695.63 244.351   2
   0  -8  -4 1025.16 102.918   2
   0  -8   4 942.120 120.160   3
   0   8   4 1057.13 91.1885   2
   0  -8   5 201.100 63.5412   3
   0  -8  -5 168.651 44.2454   2
   0  -8   6 3515.13 243.103   3
   0  -8  -6 3253.32 184.440   2
   0   8  -6 3623.15 234.709   2
   0   8  -7 162.986 55.9860   2
   0  -8  -7 178.441 47.3497   2
   0  -8   7 165.958 62.2492   3
   0  -8   8 74.3199 53.7106   3
   0  -8  -8 69.5644 35.3173   2
   0  -8  -8 40.1895 25.7612   3
   0   8  -8 68.5971 42.4589   2
   0   8  -9 178.855 63.5020   2
   0  -8  -9 126.418 48.2442   3
   0  -8  -9 92.3605 35.6792   2
   0  -8   9 89.2384 49.4280   3
   0  -8 -10 82.7908 40.0298   3
   0  -8  10 68.6954 27.4378   3
   0  -8 -10 108.764 41.3377   2
   0   8 -10 164.699 61.5200   2
   0   8 -11 39.7292 33.7976   2
   0  -8  11 4.88397 39.0291   3
   0  -8 -11-7.29503 23.4022   3
   0  -8 -11 25.1244 19.2428   2
   0  -8  12 175.264 66.6469   3
   0   8 -12 63.6783 43.3839   2
   0  -8 -12 102.287 42.3883   2
   0  -8 -12 178.902 65.7815   3
   0   8 -13 65.8177 46.9399   2
   0  -8  13 76.9009 56.4609   3
   0  -8  14 468.579 113.353   3
   0   8 -14 325.622 86.8088   2
   0  -8  15 107.395 74.4380   3
   0   8 -15 5.24793 29.9112   2
   0  -8  16 355.642 105.204   3
   0   8 -16 537.290 129.623   2
   0  -8  17 26.8249 36.6209   3
   0   8 -17 59.6074 50.5010   2
   0   8 -18 57.7699 37.2419   2
   0  -8  18 100.045 70.9903   3
   0   8 -19-26.9946 47.1561   2
   0  -8  19 70.3292 56.3629   3
   0   8 -20 167.013 81.9106   2
   0  -8  20 236.911 91.8780   3
   0   8 -21 264.161 103.136   2
   0  -9   0-5.33705 30.5005   3
   0   9   0 19.0119 21.2466   1
   0  -9   1 33.7525 27.6894   3
   0   9   1 47.9128 33.7902   1
   0   9   1 25.5817 29.0754   2
   0  -9  -1-19.8911 28.0137   2
   0   9  -1-1.34634 22.1186   1
   0   9   2 312.686 68.6932   1
   0   9   2 322.842 54.9082   2
   0  -9  -2 238.505 52.1126   2
   0   9  -2 305.040 63.0084   1
   0  -9   2 292.506 67.6996   3
   0   9  -3 306.101 65.3046   1
   0   9   3 328.654 52.5913   2
   0  -9   3 308.227 77.0882   3
   0   9   3 199.491 54.0651   1
   0  -9  -3 266.802 56.4538   2
   0   9  -4 105.977 40.8614   2
   0  -9   4 137.887 53.6033   3
   0  -9  -4 81.9953 31.1708   2
   0  -9  -5 918.333 100.967   2
   0  -9   5 1045.29 133.340   3
   0   9  -5 1068.21 124.986   2
   0  -9   6 44.5128 27.2309   3
   0   9  -6 66.3418 32.7864   2
   0  -9  -6 71.5686 34.7857   2
   0  -9  -7 89.3439 28.7280   2
   0  -9   7 68.2802 38.7959   3
   0   9  -7 158.085 54.1306   2
   0   9  -8 680.918 108.843   2
   0  -9  -8 617.673 107.271   3
   0  -9   8 796.490 122.896   3
   0  -9  -9 209.491 64.3807   3
   0   9  -9 230.586 71.9421   2
   0  -9   9 251.824 79.8367   3
   0   9 -10-102.832 65.8746   2
   0  -9  10 53.5760 38.9551   3
   0  -9  11 246.086 82.2594   3
   0   9 -11 148.501 58.2122   2
   0   9 -12-10.1187 28.6198   2
   0  -9  12 11.0059 39.6113   3
   0  -9  13-11.3576 35.7077   3
   0   9 -13-0.24038 25.5940   2
   0  -9  14 178.669 76.4816   3
   0   9 -14 119.903 58.6320   2
   0  -9  15 56.5747 47.0817   3
   0   9 -15-63.5018 50.0630   2
   0  -9  16 11.2409 34.0762   3
   0   9 -16 5.49198 43.8527   2
   0   9 -17-115.112 63.8335   2
   0  -9  17 16.3565 36.1293   3
   0  -9  18-110.649 68.8120   3
   0   9 -18 47.1469 39.2447   2
   0  -9  19 187.806 95.6970   3
   0   9 -19 65.6526 62.2451   2
   0   9 -20-151.637 75.1724   2
   0 -10   0 259.193 63.4297   3
   0  10   0 380.630 79.7854   1
   0 -10  -1 66.7795 40.9533   3
   0  10  -1 29.1754 22.5609   1
   0 -10   1 18.4640 26.8570   3
   0  10   1 32.9853 22.8450   1
   0  10   2 535.458 93.2494   1
   0 -10   2 479.147 93.4385   3
   0  10  -2 599.595 93.3017   1
   0  10  -3 224.716 62.0450   2
   0  10  -3 153.775 49.7993   1
   0  10   3 214.646 43.7493   2
   0 -10   3 136.405 52.5479   3
   0  10  -4 44.9836 37.0281   2
   0  10  -4-5.46436 29.6769   1
   0 -10   4-23.0879 28.7890   3
   0  10  -5-21.8466 23.3247   2
   0 -10   5 22.9582 35.3812   3
   0 -10   6 100.256 50.6922   3
   0  10  -6 108.275 51.7198   2
   0 -10   7 542.876 106.980   3
   0  10  -7 610.185 106.534   2
   0  10  -8 77.2545 40.5851   2
   0 -10   8-25.2110 44.7498   3
   0  10  -9 1.79845 31.1814   2
   0 -10   9 68.6301 41.9033   3
   0 -10  10-15.9312 35.7571   3
   0  10 -10 29.8920 29.9416   2
   0  10 -11 143.460 62.3979   2
   0 -10  11 147.738 62.2278   3
   0  10 -12-63.1918 46.5523   2
   0 -10  12-43.4238 46.3446   3
   0  10 -13 153.814 65.9802   2
   0 -10  13 286.067 94.3184   3
   0 -10  14 37.5358 36.3204   3
   0  10 -14-9.49467 31.0775   2
   0  10 -15 35.9787 62.1711   2
   0 -10  15-35.6440 52.2145   3
   0  10 -16-140.462 70.0056   2
   0 -10  16 69.9387 53.5131   3
   0  10 -17 50.5496 36.0821   2
   0 -10  17 136.706 74.6668   3
   0  10 -18 3.71460 44.9038   2
   0 -11   0 15.0862 38.0444   3
   0  11   0 65.0219 39.7063   1
   0  11   1-15.0104 28.3622   1
   0 -11  -1 18.0361 30.8263   3
   0  11  -1 36.3686 24.8961   2
   0 -11   1 9.02323 21.3962   3
   0  11  -1-33.5808 31.3663   1
   0 -11   2 174.056 56.7275   3
   0  11  -2 203.930 59.6688   1
   0 -11  -2 140.216 48.3729   3
   0  11  -2 247.888 60.3420   2
   0  11  -3 76.5038 36.8102   2
   0 -11   3 30.1008 32.5669   3
   0 -11  -3 68.7511 36.3657   3
   0  11  -3 105.109 42.9284   1
   0 -11   4-13.1463 37.1269   3
   0  11  -4 41.9983 34.7121   1
   0  11  -4-4.43976 20.7796   2
   0 -11   5 41.2474 33.6546   3
   0  11  -5-31.4180 38.3694   2
   0  11  -5 9.84706 28.6662   1
   0 -11   6 38.3123 30.0373   3
   0  11  -6 124.460 50.2836   2
   0 -11   7 111.257 62.8507   3
   0  11  -7 132.806 57.9348   2
   0  11  -8 25.3933 20.9330   2
   0 -11   8 32.5386 25.0363   3
   0  11  -9 174.520 67.0187   2
   0 -11   9 119.836 48.6053   3
   0 -11  10-9.86762 34.0694   3
   0  11 -10-101.108 51.3689   2
   0  11 -11-4.46264 43.6102   2
   0 -11  11 13.8549 28.6805   3
   0  11 -12 99.9073 52.8366   2
   0 -11  12 78.6907 56.8984   3
   0 -11  13-27.8569 39.5195   3
   0  11 -13-55.7327 45.1168   2
   0  11 -14 84.7000 59.2085   2
   0 -11  14 53.4855 50.3728   3
   0  11 -15 28.3051 36.0912   2
   0 -11  15-36.1011 43.6886   3
   0  11 -16 3.88048 58.4575   2
   0 -11  16 179.695 90.6327   3
   0  12   0 142.767 59.9040   1
   0  12  -1 433.322 94.1450   1
   0  12   1 590.366 114.698   1
   0  12  -2-15.6232 47.1047   1
   0  12  -3 13.1399 22.4119   1
   0  12  -4-51.0939 37.0369   1
   0  12  -5 5.31475 26.4563   1
   0  12  -6 53.2258 32.4742   1
   0  12  -7-23.9014 23.6415   1
   0  12  -8 142.664 57.5325   1
  -1   0  25 17.8192 44.8974   3
  -1   0  24-18.2222 29.4231   3
  -1   0  23 129.629 77.3088   3
  -1   0  22-57.3649 63.4952   3
  -1   0  21 36.3863 51.8794   3
  -1   0  20 40.9053 38.5235   3
  -1   0  19 252.521 90.0176   3
  -1   0  18 2.77839 34.8098   3
  -1   0  17 626.867 129.449   3
  -1   0  16 9.94356 35.9447   3
   1   0 -15 6429.31 343.125   3
  -1   0  15 6480.49 363.279   3
   1   0 -14 16.5613 29.9802   3
  -1   0  14-116.975 69.2365   3
  -1   0  13 1313.84 152.754   3
   1   0 -13 1514.04 153.247   3
   1   0 -12 34.7884 32.5273   3
   1   0 -11 6643.67 291.592   3
   1   0 -10 4.23257 23.5108   3
   1   0  -9 6117.20 254.198   3
   1   0  -8 16.0514 22.5446   3
   1   0  -7 2883.66 152.639   3
   1   0  -6-3.89533 19.1121   3
   1   0  -5 43900.1 505.817   3
   1   0  -4 11.0650 14.4823   3
  -1   0  -3 142.168 23.3510   3
  -1   0  -4-3.23187 12.4870   3
   1   0   5 2782.69 125.669   3
  -1   0  -5 2714.25 121.804   3
   1   0   6 6.62263 18.6347   3
  -1   0  -6-8.01574 17.0301   3
  -1   0  -7 1979.27 124.804   3
   1   0   7 2003.86 126.944   3
  -1   0  -8 4.75766 13.0370   3
   1   0   8 20.6763 19.6951   3
   1   0   9 14104.1 390.736   3
  -1   0  -9 14805.6 388.478   3
  -1   0 -10-24.3905 25.5039   3
  -1   0 -11 1724.56 148.516   3
   1   0  12-13.9614 26.2434   3
  -1   0 -12-3.54184 15.7474   3
  -1   0 -13 408.631 83.4681   3
   1   0  13 452.251 89.3767   3
   1   0  14 36.5232 33.3213   3
  -1   0 -14 3.25178 28.2660   3
  -1   0 -15 2558.77 216.333   3
   1   0  15 2653.77 228.029   3
   1   0  16-38.9022 40.4278   3
   1   0  17 2802.19 256.440   3
   1   0  18 11.1890 34.6032   3
   1   0  19 1501.64 200.935   3
   1   0  20 16.7610 41.9663   3
   1   0  21 143.368 84.3725   3
   1   0  22-11.8269 51.0400   3
   1   0  23 142.287 83.5331   3
   1   0  24 29.5887 57.3796   3
   1   0  25-0.40616 40.1155   3
  -1   1  25-267.875 114.127   3
  -1  -1  25-109.696 71.7953   3
  -1  -1  24 251.214 111.733   3
  -1   1  24 159.851 83.6710   3
  -1   1  23 85.8409 68.8983   3
  -1  -1  23 102.425 71.9862   3
  -1   1  22 83.4220 46.9260   3
  -1  -1  22 97.2080 75.0412   3
  -1  -1  21 27.7954 58.1561   3
  -1   1  21 169.526 76.4763   3
  -1  -1  20 185.921 80.7839   3
  -1   1  20 281.043 94.5530   3
  -1   1  19 223.619 76.5425   3
  -1  -1  19 300.349 94.9521   3
  -1  -1  18 134.220 65.2842   3
  -1   1  18 46.2240 40.3964   3
  -1   1  17-33.2546 45.5299   3
  -1  -1  17-36.9891 44.5597   3
  -1  -1  16 1768.18 199.213   3
  -1   1  16 1797.11 205.215   3
   1   1 -15 12.6864 24.1401   3
  -1  -1  15 13.4819 37.9711   3
   1  -1 -15 42.1946 30.1686   3
  -1  -1  14 608.385 111.477   3
   1   1 -14 567.856 96.1380   3
  -1   1  14 523.653 104.188   3
   1  -1 -14 585.921 99.0389   3
   1  -1 -13 744.959 107.839   3
   1   1 -13 607.661 99.7974   3
  -1   1  13 675.909 114.589   3
   1   1 -12 516.168 88.4413   3
  -1   1  12 447.644 89.1903   3
   1  -1 -12 456.560 81.2507   3
   1  -1 -11 1616.00 143.622   3
   1   1 -11 1758.76 152.831   3
   1  -1 -10-36.9921 27.9214   3
   1   1 -10 3.91368 16.1298   3
   1  -1  -9 3639.25 197.601   3
   1   1  -9 3786.35 201.038   3
  -1   1   9 3714.54 213.849   3
   1  -1  -8 2808.23 165.041   3
  -1   1   8 2976.61 180.290   3
   1   1  -8 2915.05 165.898   3
  -1   1   7 2003.24 138.826   3
   1  -1  -7 1886.64 126.618   3
   1   1  -7 2032.78 131.319   3
   1  -1  -6 558.278 65.6781   3
  -1   1   6 519.822 67.1662   3
   1   1  -6 496.703 58.8201   3
   1  -1  -5 3249.81 144.502   3
   1   1  -5 3114.85 138.998   3
  -1   1   5 3218.59 152.082   3
  -1   1   4 905.914 73.6423   3
   1   1  -4 782.099 62.6869   3
   1  -1  -4 943.498 72.2642   3
   1  -1  -3 14703.6 263.870   3
   1   1  -3 14451.5 234.442   3
  -1  -1   3 14219.2 235.240   3
  -1  -1   2 82.3091 16.9688   3
  -1  -1   2 110.219 21.4736   2
   1   1  -2 77.1991 16.7653   3
  -1  -1  -2 1424.67 61.2280   2
  -1  -1  -2 1472.07 53.1028   3
  -1   1  -2 1461.23 72.4984   3
   1   1   2 1518.25 61.9018   2
   1   1   2 1469.78 54.9459   3
   1   1   3 2000.95 80.9081   3
  -1   1  -3 1917.33 93.1931   3
  -1  -1  -3 1918.75 76.3049   3
   1   1   4 150.198 32.1158   3
  -1  -1  -4 133.404 23.9672   3
  -1   1  -4 141.381 32.6435   3
  -1  -1  -5 38050.6 443.835   3
   1   1   5 38803.8 469.765   3
  -1   1  -5 37369.8 494.946   3
  -1   1  -6 5559.20 204.234   3
  -1  -1  -6 5548.67 187.918   3
   1   1   6 5617.91 197.706   3
  -1  -1  -7 539.576 64.8798   3
  -1   1  -7 406.367 59.4760   3
   1   1   7 439.845 62.2106   3
   1   1   8 7992.44 277.312   3
  -1  -1  -8 7655.75 257.919   3
  -1   1  -8 8149.24 284.971   3
  -1   1  -9 45.5205 26.3825   3
   1   1   9 11.8920 27.1728   3
  -1  -1  -9 32.0070 23.1776   3
  -1  -1 -10 2447.65 164.952   3
   1   1  10 2397.43 169.102   3
  -1   1 -10 2453.52 175.331   3
  -1   1 -11 280.546 61.9367   3
  -1  -1 -11 249.702 56.1253   3
  -1  -1 -12 1586.22 146.289   3
  -1   1 -12 1543.12 148.431   3
  -1  -1 -13 4925.81 272.570   3
  -1   1 -13 4689.83 277.139   3
   1  -1  13 4635.52 279.377   3
   1   1  13 5203.03 294.908   3
   1   1  14 8009.54 382.911   3
  -1  -1 -14 7402.30 346.990   3
  -1   1 -14 7843.67 373.471   3
   1  -1  14 7345.70 365.873   3
  -1   1 -15 132.440 53.1356   3
   1   1  15 161.399 64.7044   3
   1  -1  15 185.017 63.1437   3
  -1  -1 -15 193.880 60.0516   3
   1  -1  16 240.265 72.8058   3
   1   1  16 383.270 86.3534   3
   1  -1  17 158.868 61.1436   3
   1   1  17 197.795 71.1593   3
   1  -1  18 357.116 96.5630   3
   1   1  18 558.184 122.059   3
   1  -1  19 729.155 141.199   3
   1   1  19 545.532 124.810   3
   1  -1  20 330.637 100.681   3
   1   1  20 437.695 122.433   3
   1  -1  21 272.560 91.0637   3
   1   1  21 208.152 79.0336   3
   1  -1  22 191.375 82.1563   3
   1   1  22 158.548 81.8620   3
   1  -1  23 162.607 80.5854   3
   1   1  23 80.4062 67.8441   3
   1   1  24 133.886 62.9093   3
   1  -1  24 85.1720 44.0273   3
   1  -1  25-133.745 82.1224   3
   1   1  25 16.0030 67.2213   3
   1   1  26 31.4866 47.6386   3
  -1  -2  25-57.6258 60.3035   3
  -1   2  24 9.70612 38.5250   3
  -1  -2  24 71.5547 55.1279   3
  -1  -2  23 35.3233 61.4479   3
  -1   2  23-40.1481 58.5970   3
  -1  -2  22 48.7230 49.0348   3
  -1   2  22 79.0717 63.8965   3
  -1   2  21 203.780 82.3406   3
  -1  -2  21 328.016 101.606   3
  -1   2  20 1018.34 180.352   3
  -1  -2  20 943.029 171.752   3
  -1  -2  19 217.846 82.2724   3
  -1   2  19 266.115 96.8481   3
  -1  -2  18 5364.80 376.696   3
  -1   2  18 4651.34 361.455   3
  -1   2  17 2.98979 47.5784   3
  -1  -2  17 53.4121 47.9913   3
  -1  -2  16 640.228 126.871   3
  -1   2  16 625.778 126.299   3
  -1  -2  15 447.548 94.2798   3
   1  -2 -15 340.685 85.5747   3
  -1   2  15 339.425 93.9266   3
   1   2 -14 9.08655 21.0728   3
  -1   2  14 3.15115 32.8609   3
  -1  -2  14 25.8113 36.1702   3
   1  -2 -14 12.7733 26.4721   3
  -1   2  13 14.6464 34.0177   3
   1  -2 -13 53.4223 25.6993   3
  -1  -2  13 35.0879 42.0957   3
   1   2 -13 44.6954 35.6766   3
   1   2 -12 6598.89 318.061   3
  -1   2  12 6166.24 329.746   3
   1  -2 -12 6248.74 303.476   3
   1  -2 -11 897.221 110.836   3
   1   2 -11 943.206 112.947   3
   1   2 -10 22.7179 22.1446   3
   1  -2 -10 31.3352 22.4278   3
   1   2  -9 796.379 97.3081   3
  -1   2   9 735.495 99.8390   3
   1  -2  -9 572.615 79.6558   3
   1  -2  -8 2562.76 162.542   3
  -1   2   8 2606.72 174.613   3
   1   2  -8 2556.99 162.757   3
  -1  -2   7 87.4574 32.6598   3
   1   2  -7 57.2023 27.3537   3
   1  -2  -7 130.478 40.6048   3
   1  -2  -6 377.746 57.4588   3
  -1  -2   6 336.469 53.4073   3
   1   2  -6 301.908 51.8638   3
  -1  -2   5 670.015 69.8156   3
   1   2  -5 568.939 62.6968   3
   1  -2  -5 620.931 69.1217   3
  -1  -2   4 12520.9 270.628   3
   1   2  -4 13608.2 278.561   3
   1   2  -4 13685.5 296.079   2
   1   2  -3 8970.18 203.833   3
  -1  -2   3 8779.53 204.207   3
   1   2  -3 8720.69 222.189   2
   1  -2  -2 4332.74 110.410   1
   1  -2  -2 4788.67 90.9574   2
   1   2  -2 4743.94 146.992   2
  -1  -2   2 4522.25 144.629   2
   1   2  -2 4364.64 128.361   3
  -1  -2   2 4441.15 129.427   3
   1   2  -1 186224. 848.652   2
  -1  -2   1 183274. 868.565   2
  -1  -2   1 190341. 718.503   3
   1  -2   0 22506.6 193.741   2
   1   2   0 22845.1 277.548   2
  -1  -2   0 21991.1 278.677   2
  -1   2   0 23058.0 192.322   2
   1   2   1 952.620 56.5563   2
   1   2   1 862.490 53.0125   1
  -1  -2  -1 923.510 56.8949   2
  -1   2  -1 938.548 48.8127   2
  -1  -2  -2 316.802 35.6268   2
   1   2   2 411.821 40.8751   1
   1   2   2 316.664 33.5449   2
  -1  -2  -2 316.195 34.6612   1
  -1  -2  -3 4612.90 131.319   3
   1  -2   3 4498.14 161.111   3
  -1  -2  -3 4474.39 134.915   2
   1   2   3 4774.20 134.017   2
  -1  -2  -3 4277.50 134.523   1
  -1  -2  -4 33.5305 14.6400   3
  -1  -2  -4 20.8926 11.8891   2
  -1   2  -4 15.9278 15.0231   3
   1  -2   4 27.7503 27.3127   3
  -1   2  -5 14348.3 333.549   3
  -1  -2  -5 14771.4 286.194   3
   1   2   5 15043.9 306.049   3
   1  -2   5 14658.5 331.190   3
  -1  -2  -5 14426.5 273.559   2
  -1   2  -6 21515.7 431.239   3
   1   2   6 22023.0 407.382   3
  -1  -2  -6 22138.5 384.830   3
   1   2   7 2306.00 142.816   3
  -1   2  -7 2396.55 155.262   3
  -1  -2  -7 2090.44 125.906   3
  -1   2  -8 144.617 47.4094   3
   1   2   8 116.537 33.8013   3
  -1  -2  -8 82.1406 31.7337   3
  -1   2  -9 64.0275 31.3820   3
  -1  -2  -9 29.1683 25.7008   3
   1   2   9 53.9964 33.9523   3
  -1  -2 -10 393.081 68.1079   3
   1   2  10 495.927 84.5436   3
  -1   2 -10 474.678 80.7949   3
  -1  -2 -11-4.26300 26.9140   3
  -1   2 -11 0.71258 33.1776   3
  -1  -2 -12 6094.98 287.614   3
  -1   2 -12 6568.75 326.310   3
  -1  -2 -13 256.627 62.0849   3
   1   2  13 79.2386 47.9336   3
   1  -2  13 193.753 63.2337   3
  -1   2 -13 92.6634 39.4200   3
   1   2  14 3435.28 255.849   3
  -1  -2 -14 3476.53 236.201   3
  -1   2 -14 3305.49 248.995   3
   1  -2  14 3345.25 248.422   3
  -1  -2 -15 595.189 103.565   3
   1  -2  15 512.942 104.744   3
   1   2  15 603.194 110.935   3
   1   2  16 1685.92 195.813   3
   1  -2  16 2068.96 213.487   3
  -1  -2 -16 2026.89 194.350   3
   1   2  17 637.871 129.053   3
   1  -2  17 715.392 133.800   3
   1   2  18 277.549 95.7539   3
   1  -2  18 348.195 100.685   3
   1  -2  19 240.912 82.9666   3
   1   2  19 312.972 101.501   3
   1  -2  20 507.049 125.258   3
   1   2  20 426.768 114.392   3
   1   2  21-58.9470 61.2406   3
   1  -2  21 54.9659 47.7133   3
   1  -2  22 171.583 61.3190   3
   1   2  22 336.049 118.254   3
   1  -2  23 363.499 118.079   3
   1   2  23 345.479 114.407   3
   1  -2  24-112.848 95.2078   3
   1   2  24-24.3377 38.8002   3
   1   2  25-16.7030 43.0149   3
   1  -2  25 8.91483 46.7533   3
   1   2  26 38.6809 52.2213   3
  -1  -3  24-61.4915 70.9551   3
  -1  -3  23 76.6939 60.7715   3
  -1  -3  22 27.5281 46.6715   3
  -1  -3  21 277.803 100.943   3
  -1  -3  20 931.538 167.681   3
  -1  -3  19 976.454 164.546   3
  -1  -3  18 48.4623 56.8316   3
  -1  -3  17 377.816 100.083   3
  -1  -3  16 93.5827 53.9480   3
  -1  -3  15 765.844 127.483   3
   1  -3 -15 875.010 129.011   3
   1   3 -14 427.358 90.2018   3
   1  -3 -14 466.832 92.3950   3
  -1  -3  14 493.782 100.511   3
  -1  -3  13 1587.12 170.607   3
   1  -3 -13 1364.86 151.512   3
   1   3 -13 1597.16 167.752   3
   1   3 -12 334.429 77.5816   3
  -1  -3  12 275.542 68.8171   3
   1  -3 -12 281.879 64.9366   3
   1  -3 -11 828.728 109.808   3
   1   3 -11 920.859 116.780   3
  -1  -3  11 719.749 102.509   3
   1  -3 -10-20.5114 32.8381   3
  -1  -3  10 19.5989 31.5877   3
   1   3 -10 17.2830 22.4510   3
   1  -3  -9 272.380 57.2545   3
   1   3  -9 269.032 61.2173   3
  -1  -3   9 226.962 60.8437   3
   1  -3  -8 819.539 96.6382   3
  -1  -3   8 762.680 90.1117   3
   1   3  -8 837.582 97.1054   3
  -1  -3   7 10122.7 316.523   3
   1  -3  -7 10117.4 325.636   3
   1   3  -7 10220.7 325.439   3
   1   3  -6 625.233 80.0959   2
   1  -3  -6 553.222 73.5929   3
   1   3  -6 551.416 70.9155   3
  -1  -3   6 589.617 74.1924   3
   1   3  -5 6784.17 239.170   2
   1  -3  -5 6656.43 169.038   2
  -1  -3   5 6745.90 228.582   3
   1   3  -5 6296.91 223.574   3
   1   3  -4-1.97340 14.6543   3
   1  -3  -4-9.10008 15.9289   1
   1  -3  -4 15.6007 11.7946   2
   1   3  -4 10.9391 21.0785   2
  -1  -3   4 9.02072 22.2936   3
  -1  -3   3 4755.87 167.001   3
   1  -3  -3 4540.32 139.061   1
   1  -3  -3 4890.25 122.167   2
   1   3  -3 4852.23 178.848   2
  -1  -3   3 4698.86 174.530   2
   1   3  -3 4513.39 164.453   3
   1  -3  -2 484.922 37.6597   2
  -1   3   2 496.354 32.9728   2
   1   3  -2 446.932 52.5017   2
  -1  -3   2 485.142 49.9605   3
   1  -3  -2 455.097 41.0031   1
  -1  -3   2 457.692 53.8258   2
  -1   3   2 512.144 46.3021   1
  -1  -3   1 426.943 49.4085   2
   1   3  -1 488.003 50.9324   2
  -1   3   1 456.865 32.4564   2
  -1  -3   1 391.054 41.9424   3
   1  -3  -1 490.658 36.4226   2
  -1   3   1 472.975 40.0801   1
  -1   3   0 65969.8 425.406   2
  -1  -3   0 63348.5 567.963   2
   1  -3   0 65861.7 445.453   2
   1   3   0 65015.4 551.957   2
   1   3   1 6079.42 159.005   1
   1   3   1 6267.23 166.660   2
  -1   3  -1 6124.88 148.766   2
  -1  -3  -1 6078.74 172.023   2
  -1   3  -2 199.069 33.4882   2
   1   3   2 184.449 29.7073   2
  -1  -3  -2 236.762 34.7132   1
  -1  -3  -2 200.577 33.0432   2
   1   3   2 223.985 37.2936   1
  -1  -3  -3 3482.23 132.368   1
  -1  -3  -3 4137.12 145.690   2
   1   3   3 4181.57 135.877   2
  -1   3  -3 4162.86 153.026   2
   1  -3   3 3919.99 168.205   3
   1   3   3 4095.47 155.220   1
   1  -3   4 3541.44 167.619   3
  -1  -3  -4 3857.72 149.962   3
  -1  -3  -4 3652.40 145.648   2
   1   3   4 4103.76 139.823   2
  -1  -3  -4 3611.41 145.452   1
   1  -3   5 3420.32 174.778   3
  -1  -3  -5 3060.31 144.879   3
  -1  -3  -5 3030.28 144.778   1
  -1  -3  -5 3305.87 139.291   2
  -1  -3  -6 10577.0 261.086   2
  -1   3  -6 10361.3 319.555   3
  -1  -3  -6 10113.5 281.727   1
  -1  -3  -6 9968.08 274.724   3
   1  -3   6 10307.7 317.358   3
   1  -3   7 2651.67 168.863   3
  -1  -3  -7 2646.74 148.037   3
  -1   3  -7 2489.00 166.493   3
  -1  -3  -7 2630.44 137.211   2
  -1   3  -8 81.4211 35.8107   3
  -1  -3  -8 98.7164 29.1889   3
  -1  -3  -8 78.6641 26.3216   2
  -1  -3  -9 2839.58 171.983   3
  -1   3  -9 2736.81 191.445   3
   1   3  10 53.2799 33.7830   3
  -1  -3 -10 69.5798 25.4082   3
  -1   3 -10 106.001 39.6832   3
  -1  -3 -11 7861.10 312.108   3
  -1   3 -11 8317.26 363.848   3
  -1   3 -12 822.654 119.251   3
   1  -3  12 841.277 118.028   3
  -1  -3 -12 809.454 107.389   3
   1  -3  13 8.71852 31.0642   3
  -1   3 -13 19.8471 25.0849   3
  -1  -3 -13-5.39601 25.7312   3
   1   3  13 22.6597 40.9648   3
  -1  -3 -14 234.163 64.8166   3
   1   3  14 298.365 88.8404   3
   1  -3  14 244.209 74.1883   3
   1  -3  15-11.1683 32.7991   3
  -1  -3 -15 13.6299 27.3343   3
   1   3  15-11.0279 32.1611   3
   1  -3  16 461.591 110.363   3
   1   3  16 393.827 100.706   3
  -1  -3 -16 497.264 98.3943   3
   1  -3  17 2211.72 234.667   3
   1   3  17 2319.49 245.889   3
   1   3  18 5.89254 32.1616   3
   1  -3  18 237.236 100.304   3
   1  -3  19 1.09656 38.4189   3
   1   3  19 17.8411 42.8561   3
   1  -3  20 115.508 85.8771   3
   1   3  20 34.9365 50.9131   3
   1   3  21 340.895 106.306   3
   1  -3  21 350.469 111.744   3
   1  -3  22 3.99661 49.6688   3
   1   3  22 66.3309 58.8769   3
   1  -3  23 181.226 90.4159   3
   1  -3  24 103.936 75.8448   3
  -1  -4  24 119.794 70.7201   3
  -1  -4  23 84.4389 57.9724   3
  -1  -4  22 1.03717 38.4307   3
  -1  -4  21 280.255 98.3099   3
  -1  -4  20 41.7486 32.8961   3
  -1  -4  19-45.5861 47.2966   3
  -1  -4  18 23.6155 32.6327   3
  -1  -4  17 823.117 147.598   3
  -1  -4  16 2114.60 222.212   3
  -1  -4  15 238.200 76.7257   3
   1  -4 -15 219.593 62.1676   3
   1  -4 -14 317.884 79.9383   3
  -1  -4  14 210.850 65.6299   3
   1  -4 -13 47.8576 29.2306   3
   1   4 -13 36.3692 21.9351   3
  -1  -4  13 65.2246 48.7254   3
  -1  -4  12-15.1382 40.6783   3
   1   4 -12 53.7702 45.3222   3
   1  -4 -12 41.0321 32.2914   3
  -1  -4  11 823.077 117.590   3
   1   4 -11 1158.03 136.596   3
   1  -4 -11 1014.50 125.105   3
   1   4 -10 2580.26 198.001   3
   1   4 -10 2421.84 191.387   2
  -1  -4  10 2785.18 200.037   3
   1  -4 -10 2539.64 191.591   3
   1  -4  -9 847.325 81.4525   2
   1   4  -9 784.116 106.621   3
  -1  -4   9 779.901 103.787   3
   1  -4  -9 878.985 109.382   3
   1   4  -8 220.829 55.6172   3
   1  -4  -8 204.575 51.2465   3
  -1  -4   8 281.226 58.6765   3
   1  -4  -8 245.227 41.5909   2
  -1  -4   7 8050.87 296.308   3
   1  -4  -7 8201.06 315.040   3
   1  -4  -7 8762.03 235.024   2
   1   4  -7 8316.62 305.294   3
   1  -4  -7 8360.34 268.737   1
   1   4  -6 8.88785 16.0460   3
  -1  -4   6 21.8826 22.9687   3
   1   4  -6 94.0447 49.7991   2
   1  -4  -6 24.4265 17.0862   1
   1  -4  -6 6.21697 11.7690   2
   1   4  -5 345.045 56.4536   3
   1  -4  -5 359.151 48.4645   1
  -1  -4   5 345.598 61.0243   3
   1   4  -5 276.520 60.0005   2
   1  -4  -5 341.664 42.7876   2
   1   4  -4 12013.8 324.875   2
   1  -4  -4 11016.3 250.624   1
   1  -4  -4 11880.9 234.269   2
  -1  -4   4 11649.5 306.445   3
  -1   4   3 1661.18 73.9918   2
  -1  -4   3 1459.04 107.355   2
   1  -4  -3 1601.18 90.5239   1
   1   4  -3 1598.16 113.496   2
  -1  -4   3 1517.23 104.488   3
   1  -4  -3 1615.00 82.9389   2
  -1   4   2 3226.13 130.983   1
   1   4  -2 3295.13 149.190   2
  -1  -4   2 3144.28 153.508   2
  -1   4   2 3506.16 106.180   2
  -1  -4   2 3259.45 142.859   3
   1  -4  -2 3226.62 111.792   2
   1   4  -1 496.134 56.1415   2
   1  -4  -1 532.312 47.5215   2
  -1   4   1 605.654 52.2514   1
  -1   4   1 564.921 44.1252   2
  -1  -4   1 615.410 65.9095   2
  -1  -4   1 563.222 58.9137   3
   1  -4   0 55.4175 19.0894   2
   1   4   0 58.0643 23.9139   2
  -1   4   0 43.6690 17.7772   2
  -1  -4   0 58.1514 22.0438   2
  -1   4  -1 85.9625 22.0888   2
  -1  -4  -1 69.3378 24.9873   2
   1   4   1 84.6081 26.4963   2
   1   4   1 100.708 25.8876   1
   1   4   2 1508.78 97.4983   1
  -1  -4  -2 1521.20 96.9889   2
  -1   4  -2 1466.86 94.1102   2
   1   4   2 1543.65 92.2690   2
   1   4   3 6717.04 214.626   1
  -1  -4  -3 7673.27 217.138   1
  -1  -4  -3 6935.27 211.407   2
   1   4   3 7103.63 197.305   2
  -1   4  -3 6861.60 215.259   2
   1  -4   3 6546.30 238.833   3
  -1   4  -4 39.2670 21.8264   2
   1  -4   4-13.9302 27.2073   3
  -1  -4  -4 28.3724 16.0337   1
   1   4   4 62.0547 19.4607   2
  -1  -4  -4 56.6790 23.3603   2
   1  -4   5 2653.67 165.713   3
  -1  -4  -5 2502.91 132.091   2
  -1  -4  -5 2657.37 144.256   3
  -1   4  -5 2646.94 152.044   2
  -1  -4  -5 2626.15 138.347   1
  -1  -4  -6 6467.65 223.259   2
  -1  -4  -6 6237.87 232.279   3
   1  -4   6 5944.82 257.781   3
  -1  -4  -6 6066.19 223.689   1
   1  -4   7-6.06667 23.3660   3
  -1  -4  -7-3.13498 13.9669   2
  -1  -4  -7 14.6542 13.1208   3
  -1  -4  -8 481.504 64.2595   2
  -1   4  -8 485.055 80.1764   3
  -1  -4  -8 462.555 69.4292   3
   1  -4   8 435.899 79.9721   3
  -1  -4  -9 859.199 90.3122   2
  -1  -4  -9 835.031 98.8154   3
   1  -4   9 852.845 110.772   3
  -1   4  -9 865.925 112.605   3
   1  -4  10 1568.02 155.908   3
  -1  -4 -10 1470.39 132.743   3
  -1   4 -10 1708.97 165.011   3
  -1  -4 -10 1640.19 130.415   2
  -1   4 -11 44.8613 41.7149   3
  -1  -4 -11 6.46241 16.5096   2
   1  -4  11-56.2760 54.6109   3
  -1  -4 -11 11.5568 24.3351   3
  -1   4 -12 38.2372 24.5907   3
  -1  -4 -12 24.9797 27.3108   2
   1  -4  12 87.6462 48.8214   3
  -1  -4 -12 18.5691 21.0152   3
   1  -4  13 320.396 87.5174   3
  -1  -4 -13 363.325 76.1637   3
  -1   4 -13 329.053 81.6509   3
  -1  -4 -13 357.912 70.4633   2
   1  -4  14 228.002 69.2085   3
  -1  -4 -14 220.008 69.3625   2
  -1  -4 -14 336.980 76.8261   3
  -1  -4 -15 690.858 113.561   3
   1  -4  15 865.795 141.195   3
  -1  -4 -15 741.210 109.659   2
   1  -4  16 426.941 102.233   3
  -1  -4 -16 282.719 71.6243   3
   1  -4  17 71.0261 53.1121   3
   1  -4  18 169.380 74.1415   3
   1  -4  19 972.453 168.219   3
   1  -4  20 1153.09 185.268   3
   1  -4  21-69.1168 64.6375   3
   1  -4  22 184.132 96.1487   3
   1  -4  23 110.324 76.5380   3
   1  -4  24-28.8191 50.8752   3
  -1  -5  23 31.1958 47.3877   3
   1   5 -23 12.3143 42.0692   2
   1   5 -22-231.146 92.8770   2
  -1  -5  22 20.3165 35.8594   3
  -1  -5  21 38.4638 53.5841   3
   1   5 -21 195.654 80.1511   2
  -1  -5  20 83.5097 71.1466   3
   1   5 -20-33.3318 63.6083   2
   1   5 -19-19.0503 43.7309   2
  -1  -5  19-55.4293 54.9620   3
  -1  -5  18 1772.73 224.530   3
   1   5 -18 1885.24 224.472   2
  -1  -5  17 895.007 157.864   3
   1   5 -17 780.763 136.753   2
  -1  -5  16 1827.50 211.920   3
   1   5 -16 1924.76 210.713   2
   1  -5 -16 1409.93 156.478   2
   1  -5 -15 541.568 93.1273   2
  -1  -5  15 559.392 116.858   3
   1   5 -15 738.575 133.281   2
   1  -5 -15 393.743 94.2365   3
   1   5 -14 953.782 140.195   2
   1  -5 -14 934.478 137.357   3
  -1  -5  14 704.656 123.879   3
   1  -5 -14 924.661 114.835   2
   1   5 -13-101.113 68.4604   2
   1  -5 -13-23.8217 25.4699   2
   1  -5 -13-21.7835 30.9974   3
  -1  -5  13-7.78513 38.3791   3
   1   5 -12 1351.46 162.101   3
   1   5 -12 1514.09 167.149   2
   1  -5 -12 1429.81 158.154   3
  -1  -5  12 1359.75 159.504   3
   1  -5 -12 1497.38 130.790   2
   1  -5 -11 7.64372 18.4271   2
   1   5 -11 0.34289 19.2958   3
   1   5 -11-54.8933 52.2465   2
   1  -5 -11-15.6850 18.6277   3
  -1  -5  11-16.1387 35.1827   3
   1   5 -10 5052.75 287.858   3
  -1  -5  10 4882.11 276.783   3
   1  -5 -10 5238.26 286.830   3
   1  -5 -10 5117.43 219.765   2
   1   5 -10 4886.12 281.742   2
   1  -5 -10 5230.12 256.220   1
  -1  -5   9 1786.55 159.683   3
   1   5  -9 1773.65 163.837   3
   1   5  -9 1858.89 166.309   2
   1  -5  -9 1725.16 139.596   1
   1  -5  -9 1677.73 161.411   3
   1  -5  -9 1806.99 123.615   2
   1  -5  -8 3239.58 212.718   3
  -1  -5   8 3058.00 198.853   3
   1   5  -8 3479.24 220.359   3
   1  -5  -8 3402.18 163.303   2
  -1  -5   7 31.6510 27.3716   3
   1  -5  -7 21.2334 15.5521   2
   1  -5  -6 14.6149 14.4044   1
  -1  -5   6 36.3144 35.4871   3
   1  -5  -6 20.6073 9.32101   2
   1  -5  -5 1545.98 102.891   1
   1   5  -5 1498.13 128.279   2
   1  -5  -5 1522.25 97.6251   2
  -1  -5   5 1541.70 126.736   3
   1  -5  -4 531.702 54.5579   2
  -1  -5   4 575.104 75.5188   3
   1  -5  -4 575.735 60.7960   1
   1   5  -4 552.954 74.7700   2
  -1  -5   3 21.2915 16.1674   2
  -1   5   3 7.98126 19.3302   1
   1  -5  -3-4.11715 13.0569   2
  -1   5   3 13.9612 11.0690   2
  -1  -5   3 1.91526 18.7703   3
   1   5  -3-37.2514 29.3296   2
   1  -5  -2 109.876 25.1759   2
  -1   5   2 111.035 30.7291   1
   1   5  -2 136.644 35.6290   2
  -1  -5   2 111.245 36.1433   2
  -1   5   2 125.301 23.6573   2
  -1  -5   2 192.083 41.9244   3
  -1  -5   1 11350.1 287.074   3
   1  -5  -1 11535.5 252.121   2
  -1   5   1 11338.3 263.177   1
  -1  -5   1 11850.4 316.872   2
   1   5  -1 12144.0 303.597   2
  -1   5   1 12056.9 235.389   2
  -1   5   0 322.207 45.9987   1
   1   5   0 245.016 44.6063   2
  -1  -5   0 196.998 40.3367   2
   1   5   0 321.305 51.3149   1
  -1   5   0 253.200 38.2202   2
   1  -5   0 269.629 41.1304   2
  -1   5  -1 7617.77 208.955   2
   1   5   1 7653.57 226.788   2
  -1  -5  -1 7584.96 241.910   2
   1   5   1 7997.35 229.871   1
  -1  -5  -2 227.618 41.5808   2
  -1   5  -2 265.599 45.6801   2
   1   5   2 248.861 42.1538   2
   1   5   2 202.507 40.9542   1
   1   5   3 208.805 35.2930   2
  -1   5  -3 203.497 44.7074   2
  -1  -5  -3 199.616 41.2943   2
   1   5   3 165.005 40.4702   1
   1  -5   3 117.847 35.5634   3
   1   5   4 1973.33 111.078   2
   1  -5   4 1980.40 146.041   3
  -1   5  -4 2103.77 137.824   2
  -1  -5  -4 2004.85 126.103   2
  -1   5  -5 3239.46 181.508   2
   1  -5   5 2904.14 185.580   3
  -1  -5  -5 2935.91 158.364   2
  -1  -5  -6 740.836 81.0320   2
  -1   5  -6 685.472 85.8619   2
   1  -5   6 797.208 104.160   3
  -1  -5  -6 731.836 85.3676   3
  -1  -5  -7 11002.7 320.046   2
  -1  -5  -7 11246.1 328.731   1
   1  -5   7 10890.4 382.678   3
  -1  -5  -7 11389.0 347.731   3
  -1  -5  -8 92.7238 33.3068   2
  -1  -5  -8 26.5151 16.4263   3
  -1  -5  -8 68.0920 36.0933   1
   1  -5   8 62.1373 32.2152   3
  -1  -5  -9 237.284 50.2532   2
  -1  -5  -9 195.001 49.4294   1
   1  -5   9 173.199 57.3823   3
  -1   5  -9 250.734 59.0728   2
  -1  -5  -9 166.908 45.8509   3
  -1  -5 -10 1499.83 128.276   2
  -1  -5 -10 1657.41 145.985   3
   1  -5  10 1511.30 159.623   3
  -1  -5 -10 1564.65 142.252   1
  -1   5 -11 122.759 51.3344   3
  -1  -5 -11 133.601 44.3964   1
  -1  -5 -11 83.8082 37.8744   3
  -1  -5 -11 62.1111 28.1602   2
   1  -5  11 95.7900 54.5898   3
  -1   5 -12 326.216 85.8131   3
  -1  -5 -12 168.570 47.5460   2
  -1  -5 -12 246.405 64.3241   3
  -1  -5 -12 246.253 60.7498   1
   1  -5  12 320.965 87.9997   3
  -1  -5 -13 219.950 55.6473   2
   1  -5  13 269.274 79.8667   3
  -1  -5 -13 256.819 64.7847   3
   1  -5  14 5360.13 338.451   3
  -1  -5 -14 5793.42 317.135   3
  -1  -5 -14 5754.45 298.550   2
  -1  -5 -15 47.9968 31.8298   2
  -1  -5 -15 78.1049 46.7097   3
   1  -5  15 142.004 72.0523   3
   1  -5  16 191.643 73.8512   3
   1  -5  17 38.9721 42.0956   3
   1  -5  18-15.4570 36.1933   3
   1  -5  19-15.1934 42.0375   3
   1  -5  20-35.6645 71.2408   3
   1  -5  21 140.991 60.9853   3
   1  -5  22 65.3441 68.1787   3
   1  -5  23 37.0188 60.7540   3
   1   6 -22 151.985 81.2512   2
  -1  -6  22 122.108 56.8586   3
   1   6 -21 131.703 84.8462   2
  -1  -6  21 53.5227 59.9403   3
  -1  -6  20-299.340 105.294   3
   1   6 -20 63.0253 44.4633   2
  -1  -6  19 83.7184 60.3611   3
   1   6 -19 147.357 72.3112   2
  -1  -6  18-69.2319 72.6914   3
   1   6 -18 28.2944 50.3825   2
   1   6 -17-42.8900 53.2520   2
  -1  -6  17-59.3090 51.1685   3
   1   6 -16 42.7485 60.9470   2
  -1  -6  16-10.2432 29.7273   3
   1  -6 -15 1597.56 155.234   2
   1   6 -15 1780.46 206.151   2
  -1  -6  15 2060.93 220.823   3
  -1  -6  14 2341.94 228.884   3
   1  -6 -14 2161.33 212.060   3
   1   6 -14 2249.88 222.899   2
   1  -6 -14 1995.67 170.062   2
   1  -6 -13 1005.20 115.537   2
   1   6 -13 1109.19 151.732   2
  -1  -6  13 1225.75 161.903   3
   1  -6 -13 1036.06 141.864   3
   1  -6 -12 242.746 55.6629   2
   1  -6 -12 197.605 69.5441   3
  -1  -6  12 373.809 94.9779   3
   1   6 -12 318.566 86.3795   2
   1  -6 -11 218.018 50.0329   2
  -1  -6  11 439.809 93.1472   3
   1  -6 -11 306.803 66.1285   1
   1  -6 -11 237.959 68.4577   3
   1   6 -11 284.381 74.7641   2
   1   6 -10 89.9010 39.2131   2
   1  -6 -10 30.6459 22.1508   1
  -1  -6  10 60.2826 46.7631   3
   1  -6 -10 93.5315 33.9072   2
   1  -6 -10 100.849 35.3327   3
   1   6  -9 1088.01 136.642   2
   1  -6  -9 1290.69 112.393   2
   1  -6  -9 1064.07 133.431   3
  -1  -6   9 1146.35 133.640   3
   1  -6  -9 1289.91 122.982   1
   1   6  -8 426.984 86.6053   2
   1  -6  -8 415.463 82.3176   3
   1  -6  -8 450.906 68.7449   1
  -1  -6   8 385.857 79.3269   3
   1  -6  -8 319.960 53.3078   2
  -1  -6   7 3887.70 227.411   3
   1  -6  -7 4295.44 187.924   2
   1  -6  -7 4111.80 196.149   1
   1  -6  -6 1992.61 121.884   2
  -1  -6   6 2083.06 162.938   3
  -1  -6   5 2058.40 154.470   3
   1  -6  -5 1964.23 116.622   2
   1   6  -4 9218.60 318.616   2
   1  -6  -4 9552.57 247.277   2
  -1  -6   4 9694.05 326.668   3
  -1  -6   3 1498.33 125.709   3
   1   6  -3 1410.32 117.815   2
  -1   6   3 1729.36 90.3371   2
  -1   6   3 1621.18 122.637   1
   1  -6  -3 1467.73 98.1264   2
  -1  -6   2 69.0316 29.0623   3
   1  -6  -2 85.8299 25.9933   2
  -1  -6   2 42.5507 22.9402   2
  -1   6   2 48.0298 18.2112   2
  -1   6   2 81.5959 23.8426   1
   1   6  -2 31.6664 15.6382   2
   1   6  -1 780.728 83.3023   2
  -1  -6   1 735.647 85.1459   2
   1  -6  -1 774.397 70.4474   2
  -1   6   1 766.141 66.3729   2
  -1   6   1 719.380 73.0994   1
  -1  -6   1 864.430 89.9600   3
  -1  -6   0 1075.63 102.439   2
   1   6   0 1005.89 91.5956   2
  -1   6   0 997.825 79.4401   2
   1  -6   0 1076.37 86.4160   2
   1   6   0 1000.55 98.6501   1
  -1   6   0 943.645 81.5283   1
   1   6   1-24.9698 15.8511   2
   1   6   1-8.36716 24.2054   1
  -1  -6  -1-17.5640 19.6597   2
  -1   6  -1 20.9801 16.6389   2
  -1  -6  -2 84.3941 28.0569   2
   1   6   2 62.7738 24.9319   1
   1   6   2 111.766 30.7025   2
  -1   6  -2 90.2350 26.3333   2
   1   6   3-25.4817 27.6971   1
   1   6   3 21.7927 19.2723   2
  -1   6  -3 55.8542 29.1846   2
   1  -6   3 1.01871 23.0679   3
  -1  -6  -3 3.43556 11.4549   2
   1   6   4 296.929 56.2368   1
  -1   6  -4 235.779 49.7412   2
   1   6   4 312.303 48.0319   2
  -1  -6  -4 238.540 52.9002   2
   1  -6   4 255.260 58.2860   3
   1   6   5 941.046 85.0391   2
  -1  -6  -5 932.553 96.1222   2
  -1   6  -5 874.492 98.2678   2
   1  -6   5 957.969 111.622   3
  -1  -6  -6 42.9838 23.0874   2
  -1  -6  -6 60.3651 27.3488   1
   1  -6   6 37.8977 25.3769   3
  -1  -6  -6 51.6479 20.3723   3
  -1  -6  -7 1039.65 113.322   3
  -1  -6  -7 1134.89 108.180   1
  -1  -6  -7 1140.19 111.527   2
   1  -6   7 1178.32 134.030   3
  -1  -6  -8 2261.49 158.704   1
   1  -6   8 1905.25 175.974   3
  -1  -6  -8 2210.26 156.317   2
  -1  -6  -8 2138.02 164.869   3
  -1  -6  -9 67.1948 30.5725   2
  -1  -6  -9 39.7113 34.1319   1
   1  -6   9-0.48798 29.2342   3
  -1  -6  -9 21.5554 23.8828   3
  -1   6  -9 63.5173 49.1161   2
   1  -6  10 659.614 109.153   3
  -1  -6 -10 611.731 91.9936   3
  -1  -6 -10 682.684 97.2859   1
  -1   6 -10 693.656 108.534   2
  -1  -6 -10 637.984 90.4474   2
  -1  -6 -11 371.910 71.3669   3
   1  -6  11 462.598 96.3089   3
  -1  -6 -11 263.584 64.0644   2
  -1   6 -11 392.169 87.0043   2
  -1  -6 -12 51.7332 36.5430   2
  -1  -6 -12 41.7132 30.4020   3
  -1   6 -12 83.3840 48.0979   2
   1  -6  12 59.6304 43.1213   3
   1  -6  13 2393.46 230.528   3
  -1  -6 -13 2090.94 191.821   3
  -1  -6 -13 2250.24 183.910   2
  -1   6 -13 2258.07 212.579   2
   1  -6  14 2262.36 229.937   3
  -1   6 -14 2157.42 215.843   2
  -1  -6 -14 1995.94 183.947   2
  -1  -6 -14 2278.35 203.284   3
  -1   6 -15 712.003 128.834   2
  -1  -6 -15 887.781 132.189   3
   1  -6  15 892.019 151.204   3
   1  -6  16 1035.93 167.665   3
  -1   6 -16 935.518 145.686   2
   1  -6  17 1789.79 222.754   3
  -1   6 -17 1886.42 216.960   2
   1  -6  18 667.384 143.166   3
  -1   6 -18 512.888 119.610   2
   1  -6  19-10.7182 41.1456   3
  -1   6 -19 26.9565 42.2484   2
   1  -6  20 247.675 92.0768   3
  -1   6 -20 241.473 87.3550   2
  -1   6 -21 92.2621 43.7867   2
   1  -6  21 347.782 116.125   3
  -1   6 -22 68.8430 44.1728   2
   1  -6  22-38.8982 51.5206   3
   1   7 -22 51.8866 73.7300   2
   1   7 -21 36.5947 63.0869   2
  -1  -7  21-112.177 74.4275   3
   1   7 -20-33.3942 42.0281   2
  -1  -7  20 19.8602 39.5794   3
   1   7 -19 31.0781 58.1798   2
  -1  -7  19 144.521 77.7110   3
   1   7 -18-109.202 64.2561   2
  -1  -7  18-23.4806 43.7243   3
  -1  -7  17-11.6552 28.3366   3
   1   7 -17-2.11385 45.4940   2
   1   7 -16 103.446 78.3390   2
  -1  -7  16-7.94626 48.8551   3
   1   7 -15 35.1476 42.3729   2
   1  -7 -15-62.9465 33.8890   2
  -1  -7  15-42.6991 46.3101   3
   1  -7 -14 5.68712 17.9860   2
  -1  -7  14-38.8783 45.4026   3
   1   7 -14-70.1336 56.3274   2
   1  -7 -13 1472.07 145.771   2
   1  -7 -13 1430.69 171.620   3
  -1  -7  13 1428.76 177.840   3
   1   7 -13 1473.58 183.475   2
   1  -7 -12 20.7857 27.5696   3
   1   7 -12 18.4428 33.5814   2
  -1  -7  12 18.6789 30.9455   3
   1  -7 -12-77.1097 33.8022   2
   1  -7 -11 1997.14 196.941   3
  -1  -7  11 1900.79 194.701   3
   1  -7 -11 2055.87 162.036   2
   1   7 -11 2270.36 214.451   2
   1  -7 -10 219.970 52.2087   2
   1  -7 -10 226.721 67.4887   3
   1   7 -10 290.983 81.9590   2
  -1  -7  10 231.470 73.8667   3
   1  -7 -10 265.059 59.5998   1
   1  -7  -9 4048.46 219.331   1
  -1  -7   9 3807.13 257.899   3
   1  -7  -9 3811.47 201.529   2
   1  -7  -9 3780.64 260.551   3
   1   7  -9 3922.07 267.487   2
   1  -7  -8 63.0846 38.0871   3
  -1  -7   8 123.076 49.1632   3
   1  -7  -8 80.2833 29.9868   2
   1   7  -8 125.161 57.0833   2
   1  -7  -8 159.254 41.5018   1
  -1  -7   7 2473.12 196.067   3
   1   7  -7 2579.61 200.212   2
   1  -7  -7 2389.87 146.800   2
   1  -7  -6 472.861 62.2987   2
   1   7  -6 542.315 92.7847   2
  -1  -7   6 474.549 87.4189   3
  -1  -7   5 108.157 43.1062   3
   1  -7  -5 102.580 30.1522   2
  -1  -7   4 315.984 66.4891   3
   1  -7  -4 289.870 47.4562   2
  -1  -7   3 414.466 70.6531   3
   1  -7  -3 497.784 62.1828   2
  -1   7   3 447.501 68.8100   1
  -1   7   3 439.087 50.7775   2
  -1  -7   2 11.0262 21.2837   2
   1   7  -2 74.4385 34.4003   2
  -1  -7   2 68.1681 28.3034   3
  -1   7   2 35.7434 21.9637   1
  -1   7   2 41.7919 15.9160   2
   1  -7  -2 76.2927 29.2792   2
  -1  -7   1 420.100 71.4809   2
  -1   7   1 410.667 61.1738   1
   1   7  -1 529.852 72.3156   1
   1  -7  -1 467.616 62.2442   2
   1   7  -1 423.902 66.6770   2
  -1   7   1 444.410 54.5463   2
  -1  -7   1 510.253 73.2653   3
  -1   7   0 447.881 64.8993   1
  -1   7   0 486.038 61.5142   2
  -1  -7   0 481.328 73.7315   2
   1   7   0 482.931 65.1538   2
   1   7   0 485.798 68.3866   1
   1   7   1 70.2265 38.2792   1
  -1  -7  -1 52.7669 30.1593   2
   1   7   1 63.5193 29.6455   2
  -1   7  -1 50.4139 24.4745   2
  -1   7  -1 92.0676 39.9527   1
   1   7   2-9.08610 15.1963   2
  -1  -7  -2-6.73155 14.1724   2
   1   7   2 28.4551 26.3970   1
  -1   7  -2 22.9142 20.0809   2
   1  -7   2-12.6671 23.9489   3
  -1   7  -3 37.0565 29.2305   2
  -1  -7  -3 5.53216 13.5275   2
   1   7   3 19.6961 18.8997   2
   1  -7   3 5.80592 26.0618   3
   1   7   3 2.08693 21.7418   1
   1  -7   4 324.181 72.8337   3
  -1   7  -4 417.607 69.6451   2
   1   7   4 407.360 59.6573   2
  -1  -7  -4 375.465 62.6439   2
   1   7   4 486.230 81.7941   1
   1   7   5 918.798 89.5146   2
   1  -7   5 867.069 118.402   3
  -1  -7  -5 916.840 99.7775   2
  -1  -7  -6 291.928 57.2541   2
   1  -7   6 214.792 59.3969   3
  -1  -7  -7 51.0909 26.1014   2
   1  -7   7 18.1550 31.9652   3
  -1  -7  -7 61.9422 36.1105   3
  -1   7  -8-13.5106 36.5827   2
  -1  -7  -8 48.5756 36.3190   3
  -1  -7  -8 19.2736 26.0282   1
  -1  -7  -8 36.2296 18.2268   2
   1  -7   8-18.8770 37.1106   3
  -1  -7  -9 127.692 43.5753   2
  -1  -7  -9 104.682 44.7266   3
   1  -7   9 146.947 68.2511   3
  -1   7  -9 150.362 61.3788   2
  -1  -7 -10 237.635 65.3928   3
   1  -7  10 135.439 58.9909   3
  -1  -7 -10 260.057 60.3394   2
  -1   7 -10 350.300 83.8233   2
  -1   7 -11 1038.79 149.788   2
   1  -7  11 1242.77 164.547   3
  -1  -7 -11 984.405 120.337   2
  -1  -7 -11 1066.25 129.493   3
   1  -7  12-12.1199 43.6303   3
  -1  -7 -12 7.28533 22.6716   2
  -1  -7 -12 0.81773 19.9680   3
  -1   7 -12-74.8579 49.6260   2
  -1  -7 -13 656.101 105.547   2
  -1   7 -13 837.976 139.632   2
   1  -7  13 711.038 130.447   3
  -1  -7 -13 687.848 114.263   3
  -1  -7 -14 30.1625 28.4311   3
   1  -7  14 16.0315 42.2713   3
  -1   7 -14 73.0923 43.4770   2
  -1  -7 -14 56.1773 25.9316   2
  -1   7 -15 1034.29 157.682   2
   1  -7  15 1288.83 184.428   3
   1  -7  16 228.762 84.9202   3
  -1   7 -16 100.311 57.1403   2
  -1   7 -17 711.747 140.668   2
   1  -7  17 532.256 126.519   3
   1  -7  18-32.3691 52.0129   3
  -1   7 -18 36.1685 30.0723   2
   1  -7  19 357.422 113.799   3
  -1   7 -19 226.493 89.5589   2
   1  -7  20 165.405 92.5571   3
  -1   7 -20 11.1459 33.9480   2
  -1   7 -21 137.407 80.4294   2
   1  -7  21 21.8643 48.9463   3
  -1   7 -22 53.2157 72.0058   2
   1   8 -21 67.7587 65.0359   2
   1   8 -20 86.1474 59.8729   2
  -1  -8  20 128.136 85.5348   3
  -1  -8  19 33.2275 47.1075   3
   1   8 -19-109.633 66.9699   2
   1   8 -18 76.8622 47.1111   2
  -1  -8  18 50.7999 60.9863   3
  -1  -8  17 79.2077 56.4890   3
   1   8 -17-28.6769 43.5672   2
   1   8 -16 111.927 62.4351   2
  -1  -8  16 18.9505 33.3895   3
   1   8 -15 114.384 61.2439   2
  -1  -8  15 163.572 65.5899   3
   1   8 -14 201.198 76.4511   2
  -1  -8  14 101.194 55.3706   3
  -1  -8  13 52.2411 45.1935   3
   1   8 -13 101.925 63.1900   2
   1   8 -12 95.3586 55.6053   2
  -1  -8  12 99.0343 58.9708   3
   1  -8 -12 45.4649 40.1202   3
   1  -8 -12 29.0379 15.3476   2
  -1  -8  11 6.03332 40.1106   3
   1  -8 -11 37.5978 25.9698   3
   1   8 -11 7.17781 33.5231   2
   1  -8 -11-14.5538 19.4995   2
   1  -8 -10 39.4576 13.6148   2
   1  -8 -10 31.6376 18.4380   3
   1   8 -10 33.1157 31.9573   2
  -1  -8  10-5.27457 48.5217   3
   1  -8  -9 616.378 83.2832   2
  -1  -8   9 594.264 107.355   3
   1   8  -9 660.870 117.594   2
   1  -8  -9 585.412 108.450   3
   1  -8  -8 303.461 55.3957   2
   1   8  -8 232.588 65.2793   2
  -1  -8   8 426.992 92.0718   3
   1   8  -7 374.924 85.3299   2
  -1  -8   7 548.310 100.801   3
   1  -8  -7 371.047 60.5166   2
   1  -8  -6 2678.02 153.755   2
   1   8  -6 2336.67 192.563   2
  -1  -8   6 2748.12 206.303   3
  -1  -8   5 1358.58 143.643   3
   1  -8  -5 1236.86 104.323   2
   1   8  -5 1178.63 132.105   2
   1  -8  -4 21.3508 18.4228   2
  -1  -8   4-23.2295 29.3550   3
  -1   8   3 8395.12 327.440   1
  -1  -8   3 8193.93 334.508   3
   1  -8  -3 8749.24 277.195   2
  -1   8   3 8956.55 242.554   2
   1   8  -2 238.573 58.5527   1
  -1   8   2 182.583 35.9904   2
   1  -8  -2 149.628 38.8600   2
  -1  -8   2 205.080 52.5247   3
  -1   8   2 149.500 45.9108   1
  -1   8   1 2945.81 150.060   2
   1  -8  -1 2649.78 155.649   2
  -1  -8   1 2409.16 176.822   2
   1   8  -1 2673.30 172.856   1
  -1   8   1 2546.77 168.022   1
  -1  -8   1 2536.97 173.515   3
  -1  -8   0 204.354 53.3504   3
   1   8   0 183.013 51.7337   1
  -1  -8   0 171.235 50.8731   2
  -1   8   0 165.908 40.7679   2
  -1   8   0 212.458 50.8101   1
  -1   8  -1 3821.88 191.172   2
   1   8   1 3582.81 210.888   1
  -1   8  -1 3461.45 188.866   1
  -1  -8  -1 3661.96 212.489   2
   1   8   1 3393.91 190.645   2
  -1   8  -2 19.7398 28.9100   1
   1   8   2 25.2541 19.2314   2
  -1   8  -2 30.0538 25.1754   2
   1   8   2 42.6214 30.0306   1
   1  -8   2 39.5014 35.3915   3
  -1  -8  -2 19.1474 18.1704   2
  -1   8  -3 235.492 51.6038   2
   1  -8   3 206.996 64.3857   3
   1   8   3 258.978 50.8979   2
   1   8   3 235.821 60.3228   1
  -1  -8  -3 195.509 54.0880   2
   1   8   4 27.4782 19.6946   2
  -1  -8  -4 44.3947 22.8267   2
   1  -8   4-12.8064 29.9785   3
  -1  -8  -5 474.839 74.6779   2
   1  -8   5 584.200 97.3152   3
  -1   8  -6 4248.55 247.535   2
  -1  -8  -6 4075.67 222.202   2
   1  -8   6 4045.88 268.284   3
  -1   8  -7 119.133 50.5909   2
  -1  -8  -7 70.8924 31.3888   2
  -1  -8  -7 109.632 39.2665   3
   1  -8   7 135.493 62.9144   3
   1  -8   8 1270.05 157.121   3
  -1   8  -8 1368.41 154.946   2
  -1  -8  -8 1275.43 140.245   3
  -1  -8  -8 1201.00 126.734   2
  -1  -8  -9 3.95142 23.6927   3
  -1   8  -9 56.9404 43.6239   2
  -1  -8  -9 38.2642 23.0724   2
   1  -8   9 29.4552 36.2190   3
  -1  -8 -10 260.385 62.8687   2
  -1  -8 -10 237.980 66.2286   3
  -1   8 -10 374.677 83.5321   2
   1  -8  10 341.695 89.4847   3
   1  -8  11 237.697 77.0317   3
  -1  -8 -11 120.504 43.3900   2
  -1  -8 -11 130.441 52.9990   3
  -1   8 -11 219.099 72.4289   2
  -1   8 -12 162.792 67.9503   2
  -1  -8 -12 123.197 41.4348   2
   1  -8  12 108.899 59.2511   3
  -1  -8 -12 58.4956 26.1382   3
  -1   8 -13 23.6881 36.8900   2
   1  -8  13 76.9156 63.4770   3
   1  -8  14 5.41760 33.9081   3
  -1   8 -14 54.2660 46.9366   2
   1  -8  15 97.2098 63.2479   3
  -1   8 -15 0.96937 32.6116   2
   1  -8  16 64.0222 36.9895   3
  -1   8 -16-46.4341 56.5305   2
  -1   8 -17 90.6918 56.0472   2
   1  -8  17-46.0085 52.6968   3
  -1   8 -18 99.1662 58.3569   2
   1  -8  18 28.3504 44.1852   3
  -1   8 -19 65.8875 54.3334   2
   1  -8  19-9.84195 42.1086   3
  -1   8 -20-53.9927 52.5802   2
   1  -8  20-10.4862 58.0102   3
  -1   8 -21-53.9496 55.6792   2
   1   9 -19 282.671 97.0672   2
  -1  -9  19 166.195 85.2074   3
   1   9 -18 27.3515 61.8885   2
  -1  -9  18 95.7288 71.7708   3
   1   9 -17 55.4179 53.9083   2
  -1  -9  17 149.786 78.5566   3
  -1  -9  16 246.083 91.7578   3
   1   9 -16 143.406 65.8101   2
  -1  -9  15-9.37071 52.6162   3
   1   9 -15-21.0296 41.1553   2
   1   9 -14 365.631 102.767   2
  -1  -9  14 217.972 82.1616   3
   1   9 -13-21.2454 44.6278   2
  -1  -9  13-11.6178 38.5366   3
  -1  -9  12 311.365 88.9390   3
   1   9 -12 294.581 89.7233   2
   1   9 -11 127.628 52.6372   2
  -1  -9  11 123.518 64.2832   3
   1   9 -10 57.8405 38.1581   2
  -1  -9  10-30.2492 36.8429   3
   1  -9  -9 62.2591 39.7785   3
  -1  -9   9 6.55849 25.2969   3
   1   9  -9 49.4337 36.2897   2
   1  -9  -8 387.796 90.6699   3
   1   9  -8 401.108 84.1807   2
  -1  -9   8 470.514 95.2826   3
  -1  -9   7 133.983 47.7421   3
   1  -9  -7 172.528 41.7382   2
   1   9  -7 207.045 72.0354   2
   1   9  -6 810.734 119.642   2
   1  -9  -6 796.748 86.9757   2
  -1  -9   6 770.656 114.456   3
   1  -9  -5 2698.82 159.780   2
  -1  -9   5 2537.75 205.474   3
   1   9  -5 2468.75 199.317   2
  -1  -9   4 125.854 50.7010   3
   1  -9  -4 51.1702 25.9551   2
   1   9  -4 34.5340 30.9755   2
   1   9  -3 1351.05 136.119   1
   1  -9  -3 1212.29 107.697   2
  -1   9   3 1381.79 97.2650   2
   1   9  -3 1134.03 129.870   2
  -1  -9   3 1145.98 135.619   3
  -1   9   2 45.9489 22.3365   2
  -1   9   2 2.27301 22.6772   1
  -1  -9   2 119.220 51.3105   3
   1   9  -2 65.5093 36.5458   1
  -1  -9   1 1271.03 130.979   3
   1   9  -1 1264.71 130.284   1
  -1   9   1 1327.25 102.717   2
  -1   9   1 1138.29 122.797   1
  -1   9   0 1012.16 95.7421   2
  -1  -9   0 755.042 102.438   2
  -1   9   0 866.268 105.509   1
   1   9   0 965.779 114.628   1
  -1  -9   0 807.560 101.208   3
   1  -9   1 1203.10 143.238   3
   1   9   1 1371.72 140.554   1
  -1  -9  -1 1320.81 134.149   2
  -1  -9  -1 1339.85 128.504   3
  -1   9  -1 1493.02 136.455   1
  -1   9  -1 1584.41 127.072   2
   1   9   2 1.29610 22.4074   1
   1  -9   2-20.6362 31.6265   3
  -1   9  -2 25.4349 22.4303   2
  -1   9  -2 0.11358 19.5136   1
  -1  -9  -2 30.3567 22.8506   2
   1   9   3 520.778 93.3812   1
  -1   9  -3 555.081 86.5157   1
   1  -9   3 519.564 96.5378   3
  -1  -9  -3 566.428 85.9179   2
  -1  -9  -4 94.6800 37.5992   2
   1  -9   4 196.147 70.3746   3
   1  -9   5 121.832 51.6114   3
  -1   9  -5 101.253 41.9184   2
  -1  -9  -5 122.741 41.2966   2
  -1  -9  -6 442.715 77.4137   2
   1  -9   6 394.722 92.1959   3
  -1   9  -6 396.492 79.3132   2
   1  -9   7-19.4806 33.6921   3
  -1  -9  -7 11.9373 16.2361   2
  -1  -9  -7-14.0129 25.4975   3
  -1   9  -7 32.5686 35.4978   2
   1  -9   8 59.5944 41.2374   3
  -1   9  -8 29.8404 37.6140   2
  -1  -9  -8 1.27663 22.7873   3
  -1  -9  -8 21.7617 26.6552   2
   1  -9   9 867.350 137.281   3
  -1   9  -9 790.206 127.420   2
   1  -9  10 121.283 57.2423   3
  -1   9 -10 119.243 52.1702   2
  -1   9 -11 24.1290 37.6668   2
   1  -9  11 11.8140 31.7913   3
   1  -9  12 89.1256 53.0979   3
  -1   9 -12 108.619 55.8259   2
  -1   9 -13 320.348 91.3228   2
   1  -9  13 383.229 106.458   3
   1  -9  14 116.321 65.3884   3
  -1   9 -14 61.4976 49.4502   2
   1  -9  15 128.320 76.8683   3
  -1   9 -15-74.3686 57.9110   2
  -1   9 -16-21.5359 38.3801   2
   1  -9  16 63.4724 69.4623   3
   1  -9  17 67.5390 39.1250   3
  -1   9 -17 79.7344 71.5067   2
  -1   9 -18-108.806 63.0534   2
   1  -9  18-12.6706 47.8782   3
  -1   9 -19-113.867 67.4973   2
  -1   9 -20 45.4063 57.4894   2
  -1 -10  18-129.727 75.1551   3
   1  10 -18-73.3585 56.2963   2
   1  10 -17 357.175 111.867   2
  -1 -10  17 153.926 85.9916   3
   1  10 -16 64.8849 55.5754   2
  -1 -10  16 230.975 91.0872   3
  -1 -10  15 143.723 79.7601   3
   1  10 -15 146.706 79.1845   2
  -1 -10  14-19.7450 27.8126   3
   1  10 -14 16.8348 42.3820   2
  -1 -10  13 136.703 66.9518   3
   1  10 -13-24.2132 37.0315   2
   1  10 -12-29.3498 41.9599   2
  -1 -10  12-35.2585 47.8549   3
  -1 -10  11 60.1348 44.5007   3
   1  10 -11 14.4656 23.1088   2
   1  10 -10-3.27923 28.1436   2
  -1 -10  10 67.1065 49.7712   3
   1  10  -9 15.0270 33.1857   2
  -1 -10   9-82.8816 50.9582   3
  -1 -10   8 20.3302 27.9131   3
   1  10  -8-39.1252 42.5108   2
  -1 -10   7 109.120 53.4697   3
   1  10  -7 131.271 54.3129   2
   1  10  -6 922.694 130.441   2
  -1 -10   6 751.739 118.347   3
  -1 -10   5-6.44882 23.4438   3
   1  10  -5-13.8093 20.2275   2
  -1 -10   4-0.16696 28.2720   3
   1  10  -4 6.23324 20.8061   2
   1  10  -4 29.2681 22.9830   1
   1  10  -3 129.186 46.1339   2
   1  10  -3 88.8828 38.8358   1
  -1 -10   3 145.974 49.7346   3
  -1  10   2 197.212 56.6222   1
  -1  10   2 287.819 46.6142   2
   1  10  -2 192.016 56.2065   1
   1  10  -2 199.946 51.7003   2
  -1 -10   2 216.457 59.6883   3
  -1  10   1 17.2726 21.8585   1
   1  10  -1 47.8016 30.3981   1
  -1 -10   1 40.5951 42.1586   3
   1  10  -1 20.3443 20.9517   2
  -1  10   1 0.82075 11.1849   2
   1  10   0 230.090 55.7481   2
   1  10   0 302.707 71.3127   1
   1 -10   0 320.413 77.3834   3
  -1 -10   0 231.083 62.0099   3
  -1  10   0 347.830 56.5952   2
  -1  10   0 309.633 69.3239   1
   1 -10   1 92.3190 53.8345   3
   1  10   1 47.6707 35.3436   1
  -1 -10  -1 75.3658 36.7475   3
  -1  10  -1 130.507 50.8918   1
  -1 -10  -2 744.299 100.252   3
  -1  10  -2 904.065 111.125   1
   1  10   2 808.878 121.771   1
   1 -10   2 658.741 108.768   3
   1 -10   3 18.8427 36.8860   3
   1  10   3 87.9993 40.2175   1
  -1  10  -3 17.6988 31.8434   1
  -1  10  -4 2.33997 22.9570   2
   1 -10   4 5.90435 39.5116   3
  -1  10  -4-13.0889 23.1758   1
   1 -10   5 95.1366 53.6299   3
  -1  10  -5 98.4003 40.2362   2
  -1  10  -6 74.6758 38.9450   2
   1 -10   6 74.0395 44.4569   3
  -1  10  -7 15.0078 25.3678   2
   1 -10   7 27.9445 33.4564   3
   1 -10   8 651.724 121.197   3
  -1  10  -8 360.467 83.3775   2
  -1  10  -9 101.214 36.2601   2
   1 -10   9 144.389 65.7156   3
   1 -10  10 166.011 69.1999   3
  -1  10 -10 210.910 74.4846   2
  -1  10 -11 61.3726 35.6626   2
   1 -10  11-4.85031 61.7184   3
  -1  10 -12-11.4563 39.7069   2
   1 -10  12-19.8836 25.1124   3
   1 -10  13-92.1867 57.6316   3
  -1  10 -13-40.4563 65.3869   2
   1 -10  14-13.9605 46.4021   3
  -1  10 -14 52.8187 43.9542   2
  -1  10 -15 86.3101 58.0240   2
   1 -10  15 30.6700 35.1783   3
   1 -10  16-56.3497 55.3268   3
  -1  10 -16 53.2589 39.5799   2
   1 -10  17-65.8723 64.0789   3
  -1  10 -17 1.16631 26.8993   2
  -1  10 -18 11.5695 44.5993   2
  -1  10 -19 90.0697 58.9502   2
   1  11 -17-79.9704 56.3819   2
   1  11 -16 16.9753 43.3532   2
  -1 -11  16 33.7927 57.4243   3
   1  11 -15-160.484 73.2244   2
  -1 -11  15 25.3326 49.5099   3
  -1 -11  14 30.0452 39.1731   3
   1  11 -14 79.4889 50.5953   2
  -1 -11  13 86.4525 48.1310   3
   1  11 -13 174.527 78.5377   2
  -1 -11  12-30.1881 42.1993   3
   1  11 -12-60.2885 44.5008   2
   1  11 -11 25.4124 21.5239   2
  -1 -11  11 105.981 68.4709   3
  -1 -11  10 69.0895 59.0291   3
   1  11 -10-22.2868 38.3225   2
  -1 -11   9 55.2490 35.2190   3
   1  11  -9 101.412 52.2274   2
   1  11  -8 36.4993 40.3399   2
  -1 -11   8-25.6462 38.2854   3
  -1 -11   7 7.90625 40.9187   3
   1  11  -7 104.449 44.6152   2
  -1 -11   6 49.4011 35.5198   3
   1  11  -6 101.073 45.8749   2
   1  11  -6 64.3253 38.8142   1
   1  11  -5-3.42208 31.9028   2
  -1 -11   5 96.5065 48.0248   3
   1  11  -5 41.8281 37.2972   1
  -1 -11   4 136.071 58.2039   3
   1  11  -4 152.338 52.5263   2
   1  11  -4 152.780 61.5896   1
   1  11  -3 142.161 53.7964   1
   1  11  -3 95.7513 44.5756   2
  -1 -11   3 62.1202 43.1258   3
   1  11  -2 113.883 47.1546   1
   1  11  -2 141.696 45.7874   2
   1 -11  -2 196.638 60.1155   3
  -1 -11   2 172.636 57.7874   3
   1  11  -1 269.801 63.5442   2
   1 -11  -1 149.880 53.2282   3
  -1 -11   1 153.565 57.0603   3
   1  11  -1 103.957 48.6037   1
  -1  11   1 132.421 55.7070   1
  -1 -11   0 447.022 84.2038   3
  -1  11   0 443.933 87.0891   1
   1  11   0 355.429 89.3728   1
   1 -11   0 414.803 83.7719   3
   1  11   0 436.394 78.2715   2
   1 -11   1 150.526 58.3314   3
  -1  11  -1 199.021 60.4617   1
   1  11   1 201.017 52.0890   2
   1  11   1 248.426 73.5202   1
   1  11   2 25.6271 31.3329   1
   1  11   2 44.1292 27.3974   2
  -1  11  -2 53.5612 37.9185   1
   1 -11   2 5.59966 22.6256   3
   1 -11   3 170.589 65.2474   3
  -1  11  -3 104.729 46.5116   1
  -1  11  -4 9.87855 18.7912   2
  -1  11  -4 41.0826 32.8136   1
   1 -11   4 29.6774 24.7373   3
  -1  11  -5 120.133 43.1982   2
   1 -11   5 162.569 64.3370   3
  -1  11  -5 146.141 50.9373   1
  -1  11  -6 154.425 54.8292   2
   1 -11   6 165.260 66.4356   3
  -1  11  -6 146.920 51.1722   1
  -1  11  -7 135.080 54.3839   2
   1 -11   7 108.137 46.6119   3
  -1  11  -8-35.6094 19.9090   2
   1 -11   8 30.8610 51.2094   3
  -1  11  -9 42.3877 31.7173   2
   1 -11   9 106.145 52.6261   3
  -1  11 -10 38.2550 43.7106   2
   1 -11  10 54.3148 40.1236   3
   1 -11  11-56.9030 51.1612   3
  -1  11 -11-43.4229 35.1551   2
   1 -11  12 116.765 63.9421   3
  -1  11 -12-13.6074 29.0445   2
  -1  11 -13 84.3225 54.5378   2
   1 -11  13-6.02525 33.9404   3
   1 -11  14 162.070 83.6351   3
  -1  11 -14 152.699 67.7712   2
   1 -11  15 105.046 84.8300   3
  -1  11 -15 69.9939 48.7397   2
  -1  11 -16 89.7796 60.3591   2
   1  12  -8 107.655 59.3165   1
   1  12  -7 21.3183 28.5841   1
   1  12  -6-87.3277 45.4559   1
   1  12  -5-92.1384 46.4623   1
   1  12  -4-12.5503 34.5534   1
   1  12  -3 207.690 71.0071   1
   1  12  -2-48.4621 47.2523   1
   1  12  -1 561.014 101.954   1
   1  12   0-72.5170 45.2333   1
  -1  12   0 2.78874 29.7949   1
   1  12   1-78.5375 47.3553   1
  -1  12  -1 31.0095 27.3951   1
  -1  12  -2-24.2703 29.9433   1
  -1  12  -3 121.562 47.6853   1
  -1  12  -4-41.9587 38.7330   1
  -1  12  -5-4.25890 32.4170   1
  -1  12  -6 49.0934 39.1149   1
   1 -12   7-174.668 69.8791   3
  -1  12  -7 53.8678 33.7432   1
  -1  12  -8 78.0579 44.1627   1
   1 -12   8 48.9987 51.2142   3
   1 -12   9-33.3176 39.1404   3
   1 -12  10-71.4177 51.3448   3
   1 -12  11-21.8361 58.7400   3
   1 -12  12-45.1256 45.0553   3
   1  13  -4 70.5734 46.3265   1
   1  13  -3 42.9090 61.6758   1
   1  13  -2-12.3686 25.9903   1
   1  13  -1 8.14332 28.8789   1
   1  13   0-1.48223 31.6228   1
  -2   0  25 2.93598 49.5378   3
  -2   0  24-32.2636 47.5237   3
  -2   0  23-59.7583 36.4035   3
  -2   0  22 247.468 98.7628   3
  -2   0  21 14.5004 40.9769   3
  -2   0  20 1606.72 222.869   3
  -2   0  19-53.7145 71.9431   3
  -2   0  18 384.559 104.060   3
  -2   0  17-35.6188 40.4079   3
  -2   0  16 342.055 95.3747   3
  -2   0  15-46.2366 46.4549   3
   2   0 -15-20.4389 30.4815   3
  -2   0  14 709.155 119.116   3
   2   0 -14 805.889 116.600   3
   2   0 -13 11.4620 30.4110   3
   2   0 -12 92.6535 38.8671   3
   2   0 -11 8.42485 18.3039   3
   2   0 -10 551.405 81.1824   3
   2   0  -9 10.1866 16.3110   3
   2   0  -8 1828.03 133.014   3
   2   0  -7 6.52800 18.2479   3
   2   0  -6 1232.21 96.4316   3
   2   0  -5 17.6338 18.8170   3
   2   0  -4 42006.1 477.334   3
   2   0  -3 8.15443 16.7718   3
  -2   0  -2 11770.5 185.886   3
  -2   0  -2 11850.0 177.783   2
   2   0   2 11200.7 179.658   3
  -2   0  -3-14.7271 17.1407   3
   2   0   3 0.57806 16.1624   3
   2   0   4 93256.8 662.756   3
  -2   0  -4 91758.0 673.212   3
  -2   0  -5 5.39777 17.7354   3
   2   0   5-2.52317 18.8314   3
   2   0   6 4281.43 171.025   3
  -2   0  -6 4105.35 170.842   3
  -2   0  -7 12.9469 21.7298   3
   2   0   7 12.2613 22.0469   3
  -2   0  -8 4646.70 207.408   3
   2   0   8 4564.66 205.949   3
  -2   0  -9 17.4686 18.8490   3
   2   0   9-7.61513 24.4015   3
  -2   0 -10 529.830 81.1763   3
  -2   0 -11 3.13608 20.5145   3
  -2   0 -12 2167.39 174.953   3
   2   0  12 2192.27 178.900   3
  -2   0 -13 9.23669 22.7528   3
   2   0  13 32.5480 35.0563   3
  -2   0 -14 86.5661 35.3292   3
   2   0  14 149.400 54.5950   3
  -2   0 -15-12.0564 27.0444   3
   2   0  15-82.8203 61.3555   3
   2   0  16 37.8766 44.0399   3
   2   0  17 1.10006 37.8532   3
   2   0  18 971.703 158.661   3
   2   0  19-9.86213 36.9882   3
   2   0  20-59.1352 55.8482   3
   2   0  21-90.2211 67.8707   3
   2   0  22 94.9106 66.2652   3
   2   0  23-9.08929 43.9270   3
   2   0  24 185.002 95.6651   3
   2   0  25 54.7662 59.9734   3
  -2  -1  25 201.225 110.242   3
  -2   1  25 45.6267 61.6651   3
  -2  -1  24 155.485 90.9557   3
  -2   1  24 16.0166 64.4930   3
  -2   1  23 109.681 70.1580   3
  -2  -1  23 99.6285 78.2659   3
  -2   1  22-38.9257 57.7830   3
  -2  -1  22 11.9668 55.5736   3
  -2  -1  21 35.9384 49.9359   3
  -2   1  21 157.625 90.4979   3
  -2   1  20 81.3186 62.6093   3
  -2  -1  20 55.9536 56.5175   3
  -2   1  19 208.288 93.8229   3
  -2  -1  19 175.890 79.2307   3
  -2   1  18 578.972 130.348   3
  -2  -1  18 551.284 128.867   3
  -2  -1  17 602.883 125.386   3
  -2   1  17 884.999 150.897   3
  -2   1  16-83.8961 54.5305   3
  -2  -1  16-23.9717 31.6206   3
  -2   1  15 989.944 149.994   3
   2  -1 -15 1195.02 148.217   3
   2   1 -15 1275.91 155.562   3
  -2  -1  15 1044.31 150.481   3
   2  -1 -14 189.533 59.0989   3
  -2  -1  14 337.195 81.9076   3
  -2   1  14 316.932 80.7812   3
   2   1 -14 221.128 63.6421   3
   2   1 -13-10.7044 18.9025   3
   2  -1 -13-1.81854 18.1475   3
  -2   1  13-5.37459 44.2643   3
   2  -1 -12 25.5830 25.4671   3
  -2   1  12 38.5333 37.1577   3
   2   1 -12-6.02237 24.9309   3
   2   1 -11 3185.81 204.373   3
   2  -1 -11 3069.83 203.392   3
   2  -1 -10 24660.3 554.931   3
   2   1 -10 24138.7 541.364   3
   2  -1  -9 17068.8 442.303   3
   2   1  -9 16716.2 424.840   3
  -2   1   8 12492.7 379.725   3
   2  -1  -8 12496.5 359.465   3
   2   1  -8 11939.0 342.666   3
  -2  -1   7 24.9913 29.2477   3
   2   1  -7 6.08394 18.1825   3
  -2   1   7-11.9591 30.7394   3
   2  -1  -7-0.52995 21.2747   3
   2   1  -6 380.351 53.8886   3
   2  -1  -6 476.245 62.0870   3
  -2  -1   6 372.814 57.9433   3
   2  -1  -5 391.873 55.4315   3
  -2  -1   5 388.735 53.8907   3
   2   1  -5 406.306 50.9779   3
  -2  -1   4 948.193 73.2292   3
   2  -1  -4 925.668 79.5442   3
   2   1  -4 955.781 69.1421   3
  -2  -1   3 20303.7 309.162   2
   2   1  -3 19892.7 280.654   3
  -2  -1   3 19937.8 289.102   3
   2   1  -2 9548.41 164.077   3
  -2  -1   2 9845.09 170.969   3
  -2  -1   2 9370.65 200.313   2
  -2  -1   1 1837.27 58.5541   3
   2   1  -1 1731.58 54.7427   3
  -2  -1   1 1689.93 78.1397   2
  -2  -1   0 5712.52 137.275   2
  -2  -1  -1 1374.94 68.5200   2
   2   1   1 1372.87 58.2345   1
   2   1   2 1311.25 48.1976   3
  -2  -1  -2 1325.76 48.5977   3
  -2  -1  -2 1361.61 69.7971   2
   2   1   3 2019.52 76.5986   3
  -2  -1  -3 1989.47 76.5039   3
  -2  -1  -3 2004.98 89.7768   2
  -2  -1  -4 716.026 54.5412   3
   2   1   4 717.879 55.1403   3
  -2   1  -4 855.374 71.5458   3
  -2  -1  -4 763.914 60.2071   2
  -2  -1  -5 839.166 66.8481   3
  -2   1  -5 852.365 77.3314   3
   2   1   5 841.810 67.5157   3
  -2   1  -6 8120.20 256.577   3
   2   1   6 8099.04 231.013   3
  -2  -1  -6 7977.15 222.872   3
  -2  -1  -7 979.115 84.9543   3
  -2   1  -7 1003.09 94.6538   3
   2   1   7 1056.04 92.6150   3
   2   1   8 1772.42 130.004   3
  -2   1  -8 1684.96 134.967   3
  -2  -1  -8 1610.86 116.564   3
  -2   1  -9 1717.77 141.646   3
   2   1   9 1872.24 141.433   3
  -2  -1  -9 1902.65 135.874   3
  -2   1 -10 72.9487 38.6164   3
  -2  -1 -10 36.0012 24.2885   3
   2   1  10 56.7353 36.2378   3
  -2  -1 -11 14.1099 26.2548   3
  -2   1 -11 5.81291 24.4698   3
  -2  -1 -12 1490.64 143.108   3
  -2   1 -12 1533.55 154.146   3
   2   1  13 62.6897 36.5707   3
  -2  -1 -13 75.6549 33.1843   3
  -2   1 -13 4.35936 17.1356   3
   2  -1  13 120.120 53.6565   3
   2  -1  14 23.2548 44.6319   3
   2   1  14 81.4777 48.6098   3
  -2  -1 -14 0.15962 28.5754   3
  -2   1 -14 17.3680 24.7850   3
   2   1  15 46.3321 35.1872   3
  -2  -1 -15 23.9686 20.9827   3
   2  -1  15-2.63998 32.7182   3
  -2   1 -15 57.3877 42.1087   3
   2   1  16 58.8537 46.7221   3
   2  -1  16 11.5537 33.6569   3
   2   1  17 85.3171 54.7789   3
   2  -1  17 52.2535 42.4765   3
   2   1  18 503.694 113.715   3
   2  -1  18 605.658 135.685   3
   2   1  19 1281.93 189.940   3
   2  -1  19 1398.88 196.217   3
   2   1  20 321.363 103.107   3
   2  -1  20 374.984 106.511   3
   2  -1  21 246.251 88.3344   3
   2   1  21 268.290 99.2452   3
   2  -1  22 162.676 77.6157   3
   2   1  22 175.017 87.1219   3
   2   1  23 320.837 102.600   3
   2  -1  23 290.763 111.420   3
   2   1  24 106.986 71.1022   3
   2  -1  24 197.229 101.476   3
   2   1  25-39.7647 69.4269   3
   2  -1  25-30.4707 70.6267   3
   2   1  26 62.8770 78.1941   3
  -2  -2  25 670.746 172.467   3
  -2  -2  24-52.0624 64.2200   3
  -2  -2  23 42.7371 55.1606   3
  -2  -2  22 110.438 67.9360   3
  -2  -2  21-44.9044 57.8038   3
  -2   2  21 23.4237 61.2325   3
  -2   2  20 176.981 71.8492   3
  -2  -2  20 413.772 104.917   3
  -2  -2  19 1339.49 196.978   3
  -2   2  19 1454.18 207.884   3
  -2   2  18 3761.79 326.079   3
  -2  -2  18 3587.06 310.329   3
  -2   2  17 15.9116 44.6057   3
  -2  -2  17 3.30946 51.3798   3
  -2   2  16 1313.25 181.885   3
  -2  -2  16 1087.24 167.804   3
  -2  -2  15 103.044 56.8438   3
   2  -2 -15 93.0328 48.1495   3
  -2   2  15 267.747 86.7290   3
  -2   2  14-41.6225 44.7270   3
  -2  -2  14-42.3172 41.2608   3
   2  -2 -14-4.77004 28.2922   3
   2   2 -14 50.0265 40.7002   3
  -2  -2  13 697.579 114.664   3
  -2   2  13 781.457 124.725   3
   2  -2 -13 711.225 109.703   3
   2   2 -13 842.761 120.026   3
   2   2 -12 817.695 113.806   3
   2  -2 -12 802.913 111.492   3
  -2   2  12 842.861 125.349   3
   2  -2 -11 563.388 89.8904   3
   2   2 -11 531.558 85.7842   3
   2  -2 -10 11253.0 379.985   3
   2   2 -10 11171.1 375.500   3
   2   2  -9 645.458 87.6217   3
   2  -2  -9 657.948 88.2448   3
   2   2  -8 1025.00 101.864   3
  -2  -2   8 1119.73 110.459   3
   2  -2  -8 938.753 102.044   3
  -2  -2   7 3013.10 167.423   3
   2  -2  -7 3147.69 181.640   3
   2   2  -7 2819.97 158.588   3
   2  -2  -6 575.789 72.8291   3
  -2  -2   6 705.841 74.4741   3
   2   2  -6 629.549 71.9503   3
  -2  -2   5 27.3209 16.4201   3
   2   2  -5 33.1777 18.6283   3
   2   2  -5 30.4175 22.3246   2
   2   2  -4 211.391 35.7759   3
  -2  -2   4 248.875 39.2804   3
   2   2  -4 257.227 45.2950   2
   2   2  -3 26.4825 16.0739   3
  -2  -2   3 3.17702 16.7413   2
  -2  -2   3-29.8431 20.9065   3
   2   2  -3 18.5958 24.7361   2
   2   2  -2 68.1460 17.6488   3
   2  -2  -2 168.584 21.4278   1
   2   2  -2 58.7123 25.9083   2
  -2  -2   2 51.6205 24.3709   2
  -2  -2   2 58.0166 18.7661   3
  -2  -2   1 53117.4 337.154   3
  -2   2   1 52920.4 320.359   1
   2   2  -1 52392.2 490.906   2
  -2  -2   1 53927.6 513.965   2
   2   2  -1 52758.4 342.552   3
   2   2   0 22383.6 313.769   2
  -2  -2   0 21662.2 315.560   2
   2   2   1 1219.89 72.4885   2
  -2  -2  -1 1077.97 71.8880   2
   2   2   1 1284.99 67.4541   1
   2   2   2 7134.33 176.544   2
  -2  -2  -2 7004.67 181.958   2
   2   2   2 6814.72 169.356   1
   2   2   3 72638.6 570.050   2
  -2  -2  -3 68065.4 438.914   3
  -2  -2  -3 67730.8 591.770   2
   2   2   4 2596.35 105.802   3
  -2  -2  -4 2525.24 97.1095   3
  -2  -2  -4 2498.88 115.045   2
  -2   2  -5 29726.5 494.558   3
  -2  -2  -5 30287.6 418.275   2
  -2  -2  -5 31341.7 387.844   3
   2   2   5 30945.6 416.626   3
   2   2   6 2560.02 132.621   3
  -2  -2  -6 2404.23 126.241   2
  -2   2  -6 2356.71 146.417   3
  -2  -2  -6 2518.53 123.945   3
  -2   2  -7 13052.1 368.995   3
  -2  -2  -7 13261.6 306.589   3
   2   2   7 14043.3 338.236   3
  -2   2  -8 3526.77 200.092   3
   2   2   8 3954.27 192.814   3
  -2  -2  -8 3508.34 173.844   3
  -2   2  -9 3485.25 209.241   3
  -2  -2  -9 3341.89 179.579   3
   2   2   9 3445.69 194.465   3
  -2  -2 -10 82.6953 36.6745   3
  -2   2 -10 70.8381 33.0281   3
   2   2  10 86.0796 38.6700   3
  -2   2 -11 503.716 87.8632   3
  -2  -2 -11 436.743 73.1066   3
  -2   2 -12 9183.41 385.445   3
  -2  -2 -12 8551.01 339.649   3
   2  -2  13 313.882 78.2589   3
  -2  -2 -13 244.526 58.8196   3
  -2   2 -13 370.249 82.6600   3
   2   2  13 319.627 78.7318   3
   2   2  14 19808.3 609.610   3
  -2  -2 -14 19722.5 562.315   3
  -2   2 -14 19614.4 613.403   3
   2  -2  14 19404.7 599.777   3
   2   2  15-34.7588 44.1523   3
  -2  -2 -15-22.5320 27.7037   3
   2  -2  15-23.7711 41.5265   3
   2  -2  16 240.661 79.1618   3
  -2  -2 -16 131.665 53.0634   3
   2   2  16 128.343 53.4011   3
   2  -2  17 65.1585 43.0442   3
   2   2  17 94.5590 55.4834   3
   2   2  18 229.637 80.7877   3
   2  -2  18 221.863 73.9790   3
   2  -2  19 1876.33 222.956   3
   2   2  19 1807.52 228.093   3
   2   2  20 536.102 129.389   3
   2  -2  20 405.290 103.548   3
   2   2  21 44.7070 56.5283   3
   2  -2  21 82.2217 63.1147   3
   2  -2  22 99.0651 68.0139   3
   2   2  22 249.768 101.595   3
   2  -2  23 479.414 137.825   3
   2   2  23 258.076 97.3822   3
   2   2  24 45.1971 39.4166   3
   2  -2  24 26.6424 57.5946   3
   2  -2  25 151.996 76.2910   3
   2   2  25 139.872 100.375   3
   2   2  26-245.255 110.484   3
  -2  -3  24 111.820 67.6361   3
  -2  -3  23-23.9962 48.6157   3
  -2  -3  22 17.9069 40.1500   3
  -2  -3  21-74.9125 57.7896   3
  -2  -3  20-58.6003 63.3784   3
  -2  -3  19 2015.91 241.664   3
  -2  -3  18 14.2059 51.4813   3
  -2  -3  17 768.980 146.049   3
  -2  -3  16 1423.83 187.264   3
  -2  -3  15 1613.92 186.617   3
   2  -3 -15 1720.15 183.837   3
   2  -3 -14 112.666 48.3710   3
   2   3 -14 96.3074 42.8303   3
  -2  -3  14 122.737 61.5713   3
   2   3 -13 7670.78 369.110   3
   2  -3 -13 7243.99 354.369   3
  -2  -3  13 7330.04 366.077   3
   2  -3 -12 455.856 87.8877   3
   2   3 -12 521.651 93.8440   3
  -2  -3  12 427.925 84.5611   3
  -2  -3  11 160.726 56.1660   3
   2  -3 -11 160.184 52.1339   3
   2   3 -11 229.297 62.4234   3
  -2  -3  10 129.142 50.6278   3
   2  -3 -10 155.603 48.6976   3
   2   3 -10 127.983 44.5955   3
   2   3  -9 198.392 52.5040   3
   2  -3  -9 183.442 52.7925   3
  -2  -3   9 230.546 55.0741   3
   2   3  -8-38.4047 31.4534   3
   2  -3  -8-21.4911 28.6728   3
  -2  -3   8-22.0757 34.9124   3
   2   3  -7 7362.91 284.144   2
  -2  -3   7 7482.55 269.431   3
   2  -3  -7 7465.13 297.643   3
   2   3  -7 7108.90 266.903   3
  -2  -3   6 165.270 46.0688   3
   2   3  -6 196.999 43.3063   3
   2   3  -6 243.153 53.8240   2
   2   3  -5 2124.91 138.635   2
  -2  -3   5 2038.71 123.799   3
   2   3  -5 1995.32 122.718   3
  -2  -3   4 6318.96 201.259   3
   2  -3  -4 6719.42 135.973   2
  -2  -3   4 6551.47 228.426   2
   2  -3  -4 6328.31 176.305   1
   2   3  -4 6572.55 232.062   2
   2   3  -4 6405.08 203.672   3
  -2  -3   3 253.639 45.3095   2
  -2  -3   3 299.341 40.8992   3
   2   3  -3 270.864 39.8891   3
   2  -3  -3 317.210 26.2939   2
   2  -3  -3 278.076 34.8401   1
   2   3  -3 313.608 48.1587   2
   2   3  -2 16748.4 328.042   2
  -2  -3   2 17687.9 276.873   3
  -2  -3   2 17508.6 349.222   2
   2  -3  -2 17655.9 228.006   1
   2   3  -1 1554.45 95.3592   2
  -2   3   1 1412.04 66.4990   1
  -2  -3   1 1509.82 98.3476   2
  -2  -3   1 1599.88 74.7221   3
  -2   3   0 55660.2 335.633   2
   2   3   0 55849.5 561.409   2
  -2  -3   0 57188.3 388.335   3
  -2  -3   0 56517.7 571.303   2
   2   3   1 2657.38 111.102   1
   2   3   1 2548.46 118.042   2
  -2  -3  -1 2640.40 123.923   2
  -2   3  -1 2890.35 92.9369   2
   2   3   2 399.441 46.3566   2
  -2  -3  -2 343.845 45.3426   2
   2   3   2 314.575 46.3215   1
   2   3   3 1269.70 88.3166   1
   2   3   3 1268.63 82.6329   2
  -2  -3  -3 1231.34 86.5503   2
  -2  -3  -3 1256.34 80.5488   1
  -2  -3  -3 1228.58 69.7312   3
  -2  -3  -4 4329.56 167.018   2
  -2  -3  -4 4245.98 162.377   1
   2  -3   4 4208.77 189.926   3
   2   3   4 4634.26 162.123   2
  -2  -3  -4 4603.24 144.616   3
  -2  -3  -5 1821.70 99.7546   3
  -2  -3  -5 1686.98 108.800   1
  -2  -3  -5 1781.13 111.561   2
   2  -3   5 1890.79 134.338   3
  -2  -3  -6 10134.4 273.574   2
  -2  -3  -6 10703.1 261.306   3
  -2  -3  -7 1789.23 115.309   3
  -2   3  -7 1640.75 138.655   3
  -2  -3  -7 1744.72 117.224   2
  -2  -3  -8 378.404 56.6638   2
   2   3   8 377.452 62.3085   3
  -2   3  -8 333.054 66.1465   3
  -2  -3  -8 384.248 57.6649   3
   2   3   9 251.302 59.3140   3
  -2   3  -9 198.664 57.2046   3
  -2  -3  -9 214.402 44.4120   2
  -2  -3  -9 216.836 49.3714   3
   2   3  10 16.6817 24.5384   3
  -2  -3 -10 66.6722 28.6543   2
  -2   3 -10 18.5969 22.9787   3
  -2  -3 -10 33.6245 23.9033   3
  -2  -3 -11 1107.98 114.514   3
  -2  -3 -11 1156.13 119.838   2
  -2   3 -11 944.380 126.116   3
  -2   3 -12 3032.20 226.624   3
  -2  -3 -12 2882.74 197.235   3
   2  -3  12 3201.69 230.268   3
   2   3  13 4498.37 279.473   3
  -2  -3 -13 4576.48 257.087   3
  -2   3 -13 4319.67 284.308   3
   2  -3  13 4019.30 269.355   3
  -2  -3 -14 471.897 85.3717   3
   2  -3  14 470.318 97.3485   3
   2   3  14 548.551 102.503   3
   2   3  15 495.945 101.979   3
   2  -3  15 488.016 104.643   3
  -2  -3 -15 476.992 94.3058   3
  -2  -3 -16 195.571 60.1774   3
   2  -3  16 152.425 62.9664   3
   2   3  16 121.245 62.2329   3
   2   3  17 84.3575 51.9283   3
   2  -3  17 123.778 60.7607   3
   2  -3  18 58.7402 50.9185   3
   2   3  18 98.2503 66.8948   3
   2   3  19 822.927 160.423   3
   2  -3  19 755.156 143.855   3
   2   3  20 202.546 80.0157   3
   2  -3  20 205.003 91.2408   3
   2  -3  21 110.916 72.7592   3
   2   3  21 30.3108 44.1456   3
   2   3  22 171.474 71.7382   3
   2  -3  22 96.3036 62.6707   3
   2  -3  23 60.8169 50.3893   3
   2   3  23 138.825 72.7237   3
   2   3  24 227.633 110.523   3
   2  -3  24 12.9133 36.9914   3
  -2  -4  24-14.0395 40.2700   3
   2   4 -24-32.0773 66.5057   2
  -2  -4  23 68.6654 49.2985   3
   2   4 -23 115.360 82.6815   2
   2   4 -22 5.42178 37.6276   2
  -2  -4  22 81.5396 57.6200   3
  -2  -4  21 21.9346 51.0188   3
   2   4 -21 12.8841 43.0294   2
   2   4 -20 2.81386 34.5393   2
  -2  -4  20-51.2935 52.1828   3
  -2  -4  19-3.41663 41.8034   3
  -2  -4  18-24.1691 62.7843   3
  -2  -4  17-4.22290 35.4817   3
   2   4 -16 979.173 150.743   2
  -2  -4  16 976.288 155.196   3
  -2  -4  15 3328.53 272.832   3
   2   4 -15 3197.52 259.952   2
   2  -4 -15 3441.44 265.122   3
  -2  -4  14-22.1770 50.0578   3
   2  -4 -14 51.7327 39.7660   3
   2   4 -14-6.34560 34.7021   2
   2   4 -13 4776.85 298.453   2
  -2  -4  13 4217.54 282.020   3
   2  -4 -13 4741.53 291.772   3
   2   4 -13 4771.27 301.287   3
  -2  -4  12 5959.07 320.171   3
   2  -4 -12 5960.68 319.509   3
   2   4 -12 6136.99 328.769   3
   2   4 -12 5936.19 321.856   2
  -2  -4  11 4791.35 273.713   3
   2   4 -11 5051.47 289.206   3
   2   4 -11 4896.86 286.184   2
   2  -4 -11 4824.97 281.772   3
  -2  -4  10 1112.55 125.046   3
   2  -4 -10 1039.46 129.498   3
   2   4 -10 1084.97 128.585   3
   2   4 -10 1073.08 132.035   2
   2   4  -9 2023.13 165.038   3
  -2  -4   9 1880.51 155.105   3
   2  -4  -9 1890.68 169.373   3
   2  -4  -8 228.197 57.0023   3
   2   4  -8 214.210 53.3041   3
  -2  -4   8 143.366 45.1072   3
   2  -4  -8 140.920 31.4752   2
   2  -4  -7 13595.0 274.250   2
   2   4  -7 13521.4 385.292   3
  -2  -4   7 13323.9 376.928   3
   2   4  -6 3056.92 187.902   2
   2  -4  -6 2873.50 146.103   1
  -2  -4   6 3116.08 170.679   3
   2  -4  -6 3047.01 120.603   2
   2   4  -6 3099.37 175.607   3
   2   4  -5 5450.28 237.067   2
  -2  -4   5 5515.35 213.385   3
   2  -4  -5 6352.09 164.927   2
   2  -4  -5 5265.54 182.358   1
   2   4  -5 5426.47 217.022   3
   2   4  -4 8389.45 254.367   3
   2  -4  -4 8372.90 209.915   1
   2   4  -4 8305.84 282.590   2
   2  -4  -4 8649.81 176.278   2
  -2  -4   4 8235.31 248.622   3
  -2  -4   4 8528.13 281.901   2
   2  -4  -3 167.858 29.2237   1
   2   4  -3 141.593 38.4940   2
   2  -4  -3 128.722 21.1298   2
  -2  -4   3 152.347 35.2072   3
  -2  -4   3 93.8308 34.6975   2
  -2  -4   2 15390.0 362.635   2
  -2   4   2 15295.8 277.385   1
   2   4  -2 15452.5 343.583   2
  -2  -4   2 16441.9 304.049   3
   2  -4  -2 14925.3 204.011   2
  -2   4   2 16729.4 187.149   2
  -2  -4   1 755.834 60.4954   3
  -2   4   1 878.876 61.3950   1
   2  -4  -1 813.332 48.3130   2
   2   4  -1 788.009 76.0687   2
  -2   4   1 872.118 45.8053   2
  -2  -4   1 875.862 83.4714   2
  -2  -4   0 1314.67 99.4568   2
  -2   4   0 1280.97 62.5464   2
   2   4   0 1348.25 97.0223   2
  -2   4   0 1387.92 74.2535   1
  -2   4  -1 8036.88 181.373   2
   2   4   1 8462.55 221.533   1
  -2  -4  -1 7976.94 239.207   2
   2   4   1 7933.16 229.928   2
   2   4   2 18187.9 342.999   2
   2   4   2 18361.6 340.641   1
  -2   4  -2 18753.1 309.304   2
  -2  -4  -2 17810.3 361.703   2
   2   4   3 1204.84 87.5439   2
   2   4   3 995.914 86.0641   1
  -2   4  -3 1219.44 86.9955   2
  -2  -4  -3 1067.09 90.2104   2
  -2  -4  -4 1354.59 96.6415   1
   2  -4   4 1222.14 110.637   3
  -2  -4  -4 1410.55 91.1632   3
  -2   4  -4 1342.91 100.940   2
   2   4   4 1310.31 93.8130   2
  -2  -4  -4 1422.26 105.399   2
  -2  -4  -5 4478.44 170.339   3
   2   4   5 4524.72 177.208   2
  -2  -4  -5 4611.87 193.523   2
  -2  -4  -5 4617.49 185.774   1
   2  -4   5 4818.79 226.748   3
   2  -4   6 2057.80 156.998   3
  -2  -4  -6 2292.94 130.867   3
  -2  -4  -6 2218.31 137.853   2
  -2  -4  -7 793.324 84.9176   2
   2  -4   7 659.737 90.9834   3
  -2  -4  -7 834.596 81.3699   3
  -2  -4  -8 547.246 70.1961   3
   2  -4   8 565.791 85.1783   3
  -2  -4  -8 513.795 69.6605   2
  -2  -4  -9 361.694 62.3715   2
  -2  -4  -9 444.485 75.1652   1
  -2  -4  -9 449.334 69.2418   3
   2  -4   9 448.158 85.3090   3
  -2   4 -10 2782.80 215.480   3
  -2  -4 -10 2771.58 188.940   1
   2  -4  10 2873.93 211.539   3
  -2  -4 -10 2728.78 174.241   2
  -2  -4 -10 2648.60 172.192   3
   2  -4  11 2360.48 198.262   3
  -2  -4 -11 2365.78 170.951   3
  -2  -4 -11 2468.25 172.336   2
  -2   4 -11 2565.79 214.105   3
  -2  -4 -12 441.016 79.5550   3
   2  -4  12 484.311 101.032   3
  -2  -4 -12 500.153 81.5158   2
  -2   4 -12 475.251 96.2984   3
  -2  -4 -13 325.206 72.4071   2
   2  -4  13 331.786 80.5007   3
  -2  -4 -13 241.817 64.0889   3
  -2  -4 -14 1991.31 176.223   2
   2  -4  14 1647.62 184.328   3
  -2  -4 -14 1757.90 169.352   3
   2  -4  15 155.945 62.6581   3
  -2  -4 -15 169.088 58.5648   3
  -2  -4 -16-12.6858 37.3478   3
   2  -4  16 0.68093 37.9151   3
   2  -4  17 844.763 149.236   3
   2  -4  18 284.503 88.9823   3
   2  -4  19 1523.34 210.027   3
   2  -4  20 719.981 153.316   3
   2  -4  21-2.90267 47.0859   3
   2  -4  22 165.721 82.5198   3
   2  -4  23-67.3143 65.7513   3
  -2  -5  23 65.8312 71.3038   3
   2   5 -23 182.382 94.8388   2
  -2  -5  22 0.72133 45.8386   3
   2   5 -22 87.1968 36.9011   2
  -2  -5  21 70.2225 49.2888   3
   2   5 -21-15.2918 32.5751   2
  -2  -5  20-35.0639 55.2655   3
   2   5 -20 1.46768 48.4540   2
   2   5 -19 60.7799 54.8733   2
  -2  -5  19-89.6502 70.6613   3
  -2  -5  18 105.271 62.9165   3
   2   5 -18 23.9399 44.9333   2
   2   5 -17 27.4728 39.4980   2
  -2  -5  17 63.0795 53.4950   3
   2   5 -16 940.248 152.735   2
  -2  -5  16 819.216 143.304   3
   2  -5 -15 14.9608 21.0124   2
  -2  -5  15 69.8997 45.8673   3
   2   5 -15 66.1743 47.9699   2
  -2  -5  14-4.72954 33.6020   3
   2  -5 -14 13.7828 30.3221   3
   2  -5 -14-24.1753 19.0128   2
   2   5 -14 76.8378 55.1938   2
   2  -5 -13-52.7164 45.4074   3
   2   5 -13 7.40606 38.4283   2
  -2  -5  13-8.88043 38.3523   3
   2  -5 -13-5.17489 13.6010   2
   2  -5 -12 1637.74 173.123   3
  -2  -5  12 1564.87 168.945   3
   2   5 -12 1566.93 172.752   3
   2  -5 -12 1481.04 128.729   2
   2   5 -12 1689.94 184.322   2
   2  -5 -11 179.415 42.6650   2
  -2  -5  11 225.634 65.6879   3
   2   5 -11 267.118 65.9203   3
   2   5 -11 117.691 49.8575   2
   2  -5 -11 137.403 51.4302   3
   2   5 -10 3.91353 40.0015   2
   2   5 -10 25.1773 37.5334   3
   2  -5 -10-1.31077 28.0681   1
  -2  -5  10 38.5918 35.2899   3
   2  -5 -10-3.35568 10.8682   2
   2  -5 -10-14.0421 36.3780   3
   2  -5  -9 803.255 93.5568   1
   2  -5  -9 820.972 79.3071   2
   2  -5  -9 756.614 114.402   3
  -2  -5   9 811.263 107.003   3
   2   5  -9 931.562 114.366   3
   2   5  -9 792.400 119.006   2
   2   5  -8 10944.5 404.593   2
   2  -5  -8 11682.5 287.875   2
  -2  -5   8 11258.2 379.631   3
   2  -5  -8 11052.3 415.770   3
   2   5  -8 11207.5 387.560   3
   2   5  -7 73.1195 35.7794   3
   2  -5  -7 45.3976 19.8061   2
  -2  -5   7 4.53604 22.6163   3
   2  -5  -6 462.317 51.0225   2
   2  -5  -6 429.326 56.5607   1
  -2  -5   6 428.615 69.9181   3
   2   5  -5 272.957 57.8946   2
   2  -5  -5 213.185 31.7711   2
   2  -5  -5 310.426 44.4693   1
  -2  -5   5 267.160 52.1554   3
   2  -5  -4 12.5776 10.9996   1
  -2  -5   4 8.62864 21.3196   2
   2   5  -4 11.0343 25.0325   2
  -2  -5   4-4.67922 19.9369   3
   2  -5  -4 5.89277 9.17300   2
   2   5  -3 154.108 44.4471   2
  -2  -5   3 119.882 41.7605   2
   2  -5  -3 110.436 20.6901   2
  -2  -5   3 148.456 38.9280   3
  -2   5   2-1.71592 7.69565   2
  -2  -5   2 20.4263 21.6539   2
  -2  -5   2 2.78904 15.5132   3
   2   5  -2 14.7154 21.6519   2
   2  -5  -2-14.6212 12.4489   2
  -2   5   2-9.19721 20.3645   1
   2  -5  -1 27114.3 331.757   2
  -2   5   1 27564.1 310.531   2
  -2  -5   1 27967.0 514.142   2
  -2  -5   1 28438.4 417.605   3
   2   5  -1 27024.6 480.718   2
  -2   5   1 26927.4 386.382   1
  -2  -5   0 296.918 43.0702   3
  -2   5   0 314.294 35.2859   2
  -2   5   0 259.225 36.4500   1
   2   5   0 364.262 55.5138   2
  -2  -5   0 364.985 56.5195   2
   2   5   0 292.532 53.8450   1
   2   5   1 3390.73 156.833   1
  -2  -5  -1 3987.90 186.193   2
  -2   5  -1 3980.54 140.947   2
   2   5   1 4081.27 178.128   2
  -2   5  -2 7.09601 15.6596   2
  -2  -5  -2 22.2195 18.3902   2
   2   5   2-3.92225 15.2179   2
   2   5   2 20.6700 22.8963   1
  -2  -5  -3 6131.26 234.335   2
  -2   5  -3 6077.46 207.706   2
   2   5   3 5836.64 208.442   2
   2   5   3 5641.65 221.153   1
  -2  -5  -4 1309.35 109.832   2
  -2   5  -4 1111.37 99.5410   2
   2   5   4 1177.58 94.4979   2
   2  -5   4 1105.90 114.942   3
   2   5   4 1215.76 106.966   1
  -2  -5  -5 7602.17 272.328   2
   2  -5   5 6651.43 289.533   3
  -2  -5  -5 7356.51 239.253   3
   2   5   5 7547.81 239.528   2
  -2   5  -5 7200.96 259.509   2
   2  -5   6 131.060 46.8866   3
  -2  -5  -6 122.177 34.7048   2
  -2   5  -6 151.139 45.2686   2
  -2  -5  -6 114.478 33.0817   3
  -2  -5  -7 422.822 67.3531   2
  -2  -5  -7 497.270 67.3938   3
  -2  -5  -7 471.854 67.3444   1
   2  -5   7 495.348 91.7932   3
   2  -5   8 2310.89 186.864   3
  -2  -5  -8 2384.36 160.031   1
  -2  -5  -8 2369.84 162.680   2
  -2  -5  -8 2415.77 154.847   3
  -2  -5  -9 6.97537 21.2548   1
  -2  -5  -9-21.6432 29.4186   3
   2  -5   9 51.1216 39.7901   3
  -2  -5  -9 8.34658 14.0148   2
   2  -5  10 1503.31 159.778   3
  -2  -5 -10 1385.61 126.406   3
  -2  -5 -10 1195.25 121.266   2
  -2  -5 -10 1279.14 129.138   1
  -2  -5 -11 64.9445 27.9111   3
  -2  -5 -11 95.5686 36.7161   2
  -2  -5 -11 93.5398 39.3169   1
   2  -5  11 92.4841 53.7475   3
  -2  -5 -12 494.659 81.9914   3
  -2  -5 -12 551.310 87.9021   2
   2  -5  12 532.172 106.245   3
  -2  -5 -13 193.301 57.2332   3
   2  -5  13 108.506 56.1840   3
  -2  -5 -13 122.176 44.2843   2
  -2  -5 -14 1879.19 176.362   2
   2  -5  14 1642.78 189.752   3
  -2  -5 -14 1731.27 171.096   3
   2  -5  15-12.8170 31.6205   3
  -2  -5 -15 101.150 44.2853   3
   2  -5  16-0.71999 33.0945   3
  -2  -5 -16-37.3238 34.5109   3
   2  -5  17 81.5361 56.2988   3
   2  -5  18 27.7772 43.4060   3
   2  -5  19-20.3769 58.3663   3
   2  -5  20 270.093 99.7302   3
   2  -5  21 70.8149 62.7646   3
   2  -5  22 284.509 95.0410   3
   2  -5  23 37.2780 51.5981   3
   2   6 -22-29.7388 59.5052   2
  -2  -6  22-70.9998 53.7818   3
   2   6 -21-26.7497 40.5987   2
  -2  -6  21-164.184 84.4375   3
   2   6 -20 88.5394 56.7062   2
  -2  -6  20 139.766 68.0734   3
  -2  -6  19 29.8223 42.7310   3
   2   6 -19 4.31475 48.0053   2
  -2  -6  18 11.7063 36.8325   3
   2   6 -18 79.5286 46.5629   2
   2   6 -17 1271.33 186.614   2
  -2  -6  17 1196.12 181.937   3
   2   6 -16 732.165 141.226   2
   2  -6 -16 604.320 96.5371   2
  -2  -6  16 803.178 145.912   3
   2   6 -15 12.7589 40.7933   2
   2  -6 -15 103.867 40.1772   2
  -2  -6  15 130.646 51.5829   3
   2  -6 -14 583.091 89.7764   2
   2   6 -14 505.977 117.892   2
  -2  -6  14 678.573 126.220   3
   2  -6 -13 1048.77 114.207   2
   2   6 -13 1195.49 174.255   2
   2  -6 -13 1174.86 162.882   3
  -2  -6  13 1039.63 151.121   3
   2   6 -12 782.686 131.714   2
   2  -6 -12 465.310 99.3349   3
  -2  -6  12 658.831 116.326   3
   2  -6 -12 591.970 94.3331   1
   2  -6 -12 572.184 79.2395   2
   2  -6 -11-54.0064 34.5285   1
   2   6 -11-10.0748 34.7906   2
  -2  -6  11 32.6062 43.4326   3
   2  -6 -11 12.3216 13.1814   2
   2   6 -11 9.40680 23.0608   3
   2  -6 -11-9.76111 29.9283   3
  -2  -6  10 88.9855 42.8808   3
   2  -6 -10 215.782 52.5500   1
   2  -6 -10 184.033 62.5378   3
   2   6 -10 220.310 64.9031   3
   2   6 -10 241.353 75.3978   2
   2  -6 -10 144.223 37.5244   2
   2   6  -9 609.222 107.492   2
   2  -6  -9 597.794 102.385   3
   2  -6  -9 523.510 66.8734   2
   2  -6  -9 571.467 80.8241   1
  -2  -6   9 642.089 98.4731   3
   2  -6  -8 50.3304 20.9987   2
   2  -6  -8 68.1118 31.1822   1
   2   6  -8 20.2003 24.6336   2
  -2  -6   8-10.6790 26.7760   3
   2  -6  -7 857.894 77.0477   2
   2   6  -7 859.500 114.889   2
  -2  -6   7 758.250 103.105   3
  -2  -6   6 650.169 90.2824   3
   2  -6  -6 634.953 63.5987   2
   2  -6  -5 4483.75 162.183   2
  -2  -6   5 4906.92 232.363   3
  -2  -6   4 7952.86 284.831   3
   2  -6  -4 8283.22 206.939   2
   2  -6  -3 42.5014 14.9074   2
  -2  -6   3 37.4683 34.1204   2
  -2  -6   3 70.6290 33.8430   3
   2   6  -3 33.8697 27.8551   2
  -2  -6   2 325.458 63.0782   2
  -2   6   2 440.819 41.1798   2
   2   6  -2 427.327 66.2823   2
  -2   6   2 315.465 50.4947   1
  -2  -6   2 374.602 58.3223   3
   2  -6  -2 324.840 40.7970   2
  -2  -6   1 320.801 59.7171   2
   2   6  -1 291.202 53.3450   2
  -2   6   1 274.401 35.6498   2
  -2   6   1 289.545 46.1887   1
   2  -6  -1 306.098 40.9185   2
  -2  -6   1 291.536 49.6875   3
   2   6   0 415.873 65.2689   1
   2   6   0 452.102 66.5594   2
  -2  -6   0 441.834 57.2898   3
  -2  -6   0 289.777 52.5296   2
  -2   6   0 360.439 43.7177   2
  -2   6   0 432.778 53.4567   1
   2   6   1 1833.95 127.262   2
  -2   6  -1 1461.24 115.843   1
  -2  -6  -1 1815.77 138.492   2
  -2   6  -1 1778.05 103.939   2
   2   6   1 1748.93 124.306   1
   2   6   2 54.8557 22.3088   1
  -2  -6  -2 50.2654 23.0788   2
  -2   6  -2 29.7582 18.7008   2
   2   6   2 35.9319 17.2670   2
   2   6   3 12.5819 25.0445   1
   2   6   3-9.32075 14.0541   2
  -2  -6  -3-11.3017 20.7153   2
   2  -6   3 42.3809 34.4205   3
  -2   6  -3 14.9852 15.4833   2
   2   6   4 599.612 71.6006   2
   2  -6   4 646.002 95.7279   3
  -2  -6  -4 576.391 81.1684   2
  -2   6  -4 513.922 72.4575   2
   2   6   4 641.560 85.6036   1
  -2   6  -5 273.958 55.3033   2
   2   6   5 177.337 41.1424   2
   2  -6   5 212.242 60.3150   3
  -2  -6  -5 277.804 55.8718   2
  -2  -6  -6 799.981 95.6059   2
  -2  -6  -6 881.122 93.5325   3
   2  -6   6 853.455 115.702   3
  -2  -6  -6 1115.09 107.150   1
  -2   6  -6 889.546 105.747   2
  -2  -6  -7 476.799 69.2875   3
  -2  -6  -7 511.071 77.6849   1
   2  -6   7 459.386 88.2818   3
  -2  -6  -7 474.101 77.2416   2
  -2  -6  -8 919.955 103.664   1
   2  -6   8 856.868 119.191   3
  -2  -6  -8 788.161 92.7925   3
  -2  -6  -8 814.745 101.315   2
  -2  -6  -9 1462.59 134.316   3
  -2   6  -9 1355.05 144.772   2
  -2  -6  -9 1227.49 126.954   2
  -2  -6  -9 1292.80 127.434   1
   2  -6   9 1410.08 158.504   3
  -2  -6 -10 804.841 100.276   3
  -2   6 -10 697.046 109.662   2
   2  -6  10 868.229 124.522   3
  -2  -6 -10 819.239 103.713   1
  -2  -6 -10 891.468 110.913   2
  -2  -6 -11 19.3516 16.0759   2
   2  -6  11 11.5475 28.1902   3
  -2   6 -11-40.4704 36.9491   2
  -2  -6 -11 31.1416 22.2670   3
   2  -6  12 441.461 101.662   3
  -2  -6 -12 522.911 88.5253   3
  -2  -6 -12 418.215 81.5587   2
  -2   6 -12 404.193 86.7908   2
  -2   6 -13 760.417 127.684   2
   2  -6  13 1041.29 154.840   3
  -2  -6 -13 1025.85 131.873   2
  -2  -6 -13 962.523 124.198   3
  -2  -6 -14 123.030 47.1514   3
   2  -6  14 249.700 83.2638   3
  -2  -6 -14 194.736 59.3522   2
   2  -6  15 125.189 67.4174   3
  -2  -6 -15 75.7657 33.9504   3
  -2  -6 -16 141.267 53.5565   3
   2  -6  16 216.558 87.0369   3
   2  -6  17 233.397 88.0877   3
   2  -6  18 235.086 82.2845   3
   2  -6  19 48.6665 51.5738   3
   2  -6  20 347.858 113.042   3
   2  -6  21 169.657 83.0908   3
  -2   6 -22-133.864 75.4167   2
   2  -6  22-31.8514 49.3758   3
  -2  -7  21 129.766 86.3512   3
   2   7 -21 97.3108 67.6051   2
   2   7 -20 113.100 79.1879   2
  -2  -7  20-124.545 65.8359   3
   2   7 -19 86.2150 49.5146   2
  -2  -7  19 77.9761 63.5115   3
  -2  -7  18 427.870 119.191   3
   2   7 -18 345.723 108.134   2
   2   7 -17 1.36426 33.0368   2
  -2  -7  17 58.6942 61.2633   3
  -2  -7  16 115.007 69.5776   3
   2   7 -16 25.3124 46.5419   2
   2   7 -15 399.881 111.470   2
   2  -7 -15 353.555 75.0516   2
  -2  -7  15 459.333 112.835   3
   2  -7 -14 81.0671 29.8180   2
   2   7 -14 139.397 71.6299   2
  -2  -7  14 165.785 70.3269   3
   2   7 -13 805.391 141.594   2
   2  -7 -13 608.201 93.0652   2
  -2  -7  13 608.309 117.295   3
   2  -7 -13 672.389 126.809   3
   2   7 -12 12.7038 39.6414   2
   2  -7 -12-43.9559 41.6221   3
  -2  -7  12 50.6355 34.3181   3
   2  -7 -12 34.0145 25.4646   2
   2  -7 -11 419.435 75.1904   1
   2  -7 -11 382.188 65.9808   2
   2  -7 -11 412.251 100.954   3
   2   7 -11 500.008 107.589   2
  -2  -7  11 442.908 99.4995   3
   2  -7 -10 320.360 62.5019   1
   2  -7 -10 312.997 56.8893   2
   2   7 -10 417.022 92.4382   2
  -2  -7  10 387.111 89.7377   3
   2  -7 -10 258.456 77.1080   3
   2   7  -9 141.385 66.0390   2
   2  -7  -9 88.7837 26.4490   2
   2  -7  -9 119.379 48.2027   3
  -2  -7   9 142.224 56.8191   3
   2  -7  -9 69.9769 28.6884   1
   2   7  -8 79.1069 42.3819   2
   2  -7  -8 147.135 37.0157   2
   2  -7  -8 155.716 38.8155   1
  -2  -7   8 184.355 59.2471   3
   2  -7  -7 251.257 43.0967   2
   2  -7  -7 258.555 61.7102   1
   2   7  -7 207.854 63.2426   2
  -2  -7   7 361.403 79.2406   3
   2   7  -6 2501.75 194.633   2
  -2  -7   6 2628.80 189.968   3
   2  -7  -6 2571.96 132.156   2
   2  -7  -5 441.073 53.6628   2
  -2  -7   5 391.565 71.9183   3
   2   7  -5 413.949 76.7661   2
  -2  -7   4 1080.43 113.320   3
   2  -7  -4 1105.02 82.2023   2
  -2  -7   3 722.916 89.9503   3
  -2  -7   3 781.616 104.759   2
   2  -7  -3 781.045 69.0287   2
  -2  -7   2 36.3337 20.7533   2
   2  -7  -2 1.85295 11.8372   2
  -2   7   2 0.22434 7.78338   2
  -2   7   2 18.6860 18.3153   1
  -2  -7   2 3.02330 17.6611   3
  -2   7   1 135.444 40.1813   1
  -2  -7   1 38.5210 21.5574   2
   2   7  -1 127.172 44.2235   1
  -2  -7   1 43.6484 19.6579   3
  -2   7   1 67.9861 20.1884   2
  -2  -7   0 9408.12 340.676   2
  -2  -7   0 8933.72 280.666   3
  -2   7   0 9237.50 242.402   2
  -2   7   0 9284.33 275.258   1
   2   7   0 9810.56 313.249   1
   2   7   0 9096.59 311.125   2
  -2   7  -1 231.001 44.6444   1
  -2  -7  -1 126.966 44.3777   2
   2   7   1 135.960 41.4909   1
  -2   7  -1 170.646 35.7042   2
   2   7   1 193.282 48.4334   2
   2   7   2 416.555 62.6912   2
  -2  -7  -2 448.013 72.6252   2
  -2   7  -2 436.001 61.3916   2
   2   7   2 345.323 63.1628   1
   2   7   3 185.471 43.0742   2
   2   7   3 133.310 45.3553   1
  -2  -7  -3 166.392 44.1247   2
   2  -7   3 217.676 61.0703   3
  -2   7  -3 225.944 45.7587   2
  -2   7  -4 10.7943 18.8023   2
  -2  -7  -4 60.3797 31.6418   2
   2   7   4 0.61556 26.8850   1
   2  -7   4 18.1835 31.4303   3
   2  -7   5 61.0401 32.0061   3
  -2   7  -5 163.354 47.1069   2
  -2  -7  -5 165.805 47.2885   2
  -2  -7  -6 513.304 81.6086   2
   2  -7   6 449.588 90.2299   3
  -2  -7  -6 469.911 72.9950   3
  -2  -7  -7 58.4202 34.2722   3
   2  -7   7 47.5841 40.5454   3
  -2  -7  -7 6.18695 22.2339   2
  -2  -7  -8 822.719 102.705   1
   2  -7   8 637.483 111.468   3
  -2   7  -8 687.654 106.739   2
  -2  -7  -8 719.764 99.1396   2
  -2  -7  -8 686.537 92.3966   3
  -2  -7  -9 325.831 64.3055   3
   2  -7   9 271.388 69.5133   3
  -2   7  -9 349.973 82.6073   2
  -2  -7  -9 313.060 68.8832   2
  -2   7 -10 96.9426 49.5437   2
   2  -7  10 75.8757 42.8281   3
  -2  -7 -10 118.229 40.7471   2
  -2  -7 -10 109.791 40.2598   3
   2  -7  11 374.977 93.9551   3
  -2   7 -11 336.243 85.0614   2
  -2  -7 -11 471.701 82.7262   3
  -2  -7 -11 424.404 83.6218   2
   2  -7  12-29.1027 45.2617   3
  -2  -7 -12 3.29948 30.3459   2
  -2  -7 -12-5.81554 21.8169   3
  -2   7 -12-18.2662 40.3582   2
  -2  -7 -13 288.793 72.4824   2
   2  -7  13 376.334 102.458   3
  -2  -7 -13 319.128 70.6804   3
  -2   7 -13 288.149 79.4968   2
  -2   7 -14 6.29510 40.5064   2
  -2  -7 -14 2.69564 30.5152   3
   2  -7  14 63.4094 52.0444   3
   2  -7  15-1.80526 34.4223   3
  -2   7 -15 86.9137 47.3916   2
   2  -7  16 162.355 68.4367   3
  -2   7 -16 200.422 75.2693   2
  -2   7 -17 284.873 90.1762   2
   2  -7  17 714.326 144.156   3
  -2   7 -18 123.638 76.1221   2
   2  -7  18 87.9439 56.3248   3
  -2   7 -19 398.711 113.820   2
   2  -7  19 542.995 137.067   3
  -2   7 -20 102.919 70.2786   2
   2  -7  20 117.103 49.3847   3
  -2   7 -21-65.7580 57.5920   2
   2  -7  21-5.08914 50.3070   3
  -2   7 -22 78.3732 64.4751   2
  -2  -8  20 63.1944 57.0076   3
   2   8 -20 22.3411 47.2135   2
   2   8 -19-100.923 68.5216   2
  -2  -8  19 72.3016 87.5368   3
   2   8 -18-7.19086 69.3015   2
  -2  -8  18-73.2737 56.6938   3
  -2  -8  17 63.5927 59.5566   3
   2   8 -17 242.413 89.0123   2
  -2  -8  16-20.0378 37.6273   3
   2   8 -16-85.0615 57.3889   2
   2   8 -15 247.459 85.6273   2
  -2  -8  15 192.812 77.1576   3
   2   8 -14-56.0309 51.9672   2
  -2  -8  14 1.48441 27.9088   3
   2   8 -13 1.43712 35.6763   2
  -2  -8  13 35.2921 42.6503   3
  -2  -8  12 138.428 56.8242   3
   2   8 -12 122.424 52.8760   2
   2  -8 -11 153.330 61.7649   3
  -2  -8  11 137.859 50.5156   3
   2   8 -11 175.999 75.1011   2
   2  -8 -11 138.965 40.5961   2
   2   8 -10 3264.03 263.232   2
  -2  -8  10 3225.96 252.888   3
   2  -8 -10 3125.67 261.320   3
   2  -8 -10 3194.30 182.942   2
   2  -8  -9 597.333 112.132   3
   2  -8  -9 710.426 81.0922   2
  -2  -8   9 741.572 123.480   3
   2   8  -9 616.463 113.353   2
   2  -8  -8 2734.62 153.623   2
  -2  -8   8 2593.48 210.636   3
   2   8  -8 2898.65 233.847   2
   2  -8  -7 1018.02 89.4101   2
   2   8  -7 878.197 130.617   2
  -2  -8   7 941.679 123.705   3
   2   8  -6 1417.95 153.094   2
  -2  -8   6 1581.50 155.208   3
   2  -8  -6 1525.52 106.149   2
  -2  -8   5 123.779 45.8344   3
   2  -8  -5 167.275 34.7767   2
   2   8  -5 119.666 47.4398   2
   2  -8  -4 29.9564 12.0698   2
   2   8  -4 46.9354 28.4448   2
  -2  -8   4 18.9278 27.2352   3
   2  -8  -3 2021.18 118.330   2
   2   8  -3 1742.95 157.231   2
  -2  -8   3 1978.36 158.596   3
  -2  -8   2 859.154 102.995   3
  -2   8   2 936.391 71.2649   2
  -2  -8   2 1019.04 122.741   2
  -2   8   2 838.312 96.3546   1
   2   8  -2 1120.27 115.894   1
  -2   8   1 1918.75 141.389   1
  -2  -8   1 1857.58 141.972   3
  -2   8   1 2108.66 112.900   2
  -2  -8   1 1713.98 157.239   2
   2   8  -1 1682.91 144.962   1
  -2  -8   0 697.052 100.038   2
  -2   8   0 617.293 67.4032   2
  -2   8   0 495.446 73.6185   1
  -2  -8   0 589.971 78.6679   3
   2   8   0 655.223 90.5666   1
   2   8   1 2793.26 186.550   1
  -2  -8  -1 2708.21 191.499   2
  -2   8  -1 3038.46 170.520   1
  -2   8  -1 3104.06 157.708   2
  -2  -8  -1 2919.65 168.434   3
   2   8   2 1062.84 120.132   1
  -2   8  -2 1312.22 116.054   1
  -2  -8  -2 919.893 111.525   2
  -2   8  -2 1013.58 97.6175   2
   2  -8   2 865.379 118.749   3
  -2  -8  -3 1912.01 159.743   2
   2  -8   3 1627.19 162.391   3
   2   8   3 1755.89 159.707   1
  -2   8  -3 2009.85 142.360   2
  -2  -8  -4-20.4599 22.6694   2
   2  -8   4 37.0386 36.9613   3
  -2   8  -4 8.58403 16.9777   2
   2   8   4 69.2319 41.9840   1
   2  -8   5 1577.60 168.107   3
  -2  -8  -5 1716.84 149.667   2
   2  -8   6 1447.32 168.085   3
  -2  -8  -6 1424.66 139.346   2
  -2  -8  -6 1520.46 138.336   3
  -2  -8  -7 5665.73 291.710   2
  -2   8  -7 6938.65 322.983   2
   2  -8   7 5812.64 339.523   3
  -2  -8  -7 6605.49 290.507   3
  -2   8  -8 39.0407 37.4124   2
  -2  -8  -8 20.4351 21.5875   3
   2  -8   8-8.24810 37.7723   3
  -2  -8  -8-11.5493 29.5665   2
  -2  -8  -9 24.8398 26.3569   2
  -2  -8  -9 12.0510 24.2462   3
   2  -8   9-3.88260 39.9021   3
  -2   8  -9 80.7724 41.3518   2
  -2  -8 -10 492.649 89.3934   2
   2  -8  10 775.809 130.372   3
  -2   8 -10 622.373 110.876   2
  -2  -8 -10 612.953 95.6228   3
  -2   8 -11 226.726 72.8584   2
   2  -8  11 388.067 99.2109   3
  -2  -8 -11 248.348 62.3907   3
  -2  -8 -11 160.253 46.4134   2
   2  -8  12 119.292 68.0771   3
  -2   8 -12 78.7367 44.5932   2
  -2  -8 -12 133.102 56.1803   2
  -2   8 -13 22.2699 34.5045   2
   2  -8  13-125.762 79.5032   3
   2  -8  14 18.4186 39.8139   3
  -2   8 -14 81.5406 49.7837   2
  -2   8 -15 30.2941 41.4416   2
   2  -8  15 127.320 74.4438   3
  -2   8 -16 38.0446 35.4290   2
   2  -8  16-10.2246 47.9128   3
  -2   8 -17 47.9895 45.5448   2
   2  -8  17-46.9286 52.6046   3
  -2   8 -18 84.0315 57.1780   2
   2  -8  18-63.8041 72.1441   3
  -2   8 -19 52.5684 66.9089   2
   2  -8  19-128.826 75.1050   3
  -2   8 -20 35.1028 43.8861   2
  -2   8 -21-104.413 66.8922   2
  -2  -9  19 251.333 112.082   3
   2   9 -19 50.2123 52.9217   2
   2   9 -18-20.9287 40.1095   2
  -2  -9  18-3.40109 33.6423   3
  -2  -9  17 88.8763 76.7279   3
   2   9 -17 109.601 57.2566   2
  -2  -9  16-70.1482 54.0197   3
   2   9 -16-20.1763 41.4928   2
   2   9 -15 25.4801 27.2334   2
  -2  -9  15-24.5420 37.6842   3
   2   9 -14 89.8817 55.9824   2
  -2  -9  14-45.1606 56.9791   3
  -2  -9  13-72.0947 50.8828   3
   2   9 -13-25.1205 27.6589   2
   2   9 -12 25.0133 39.2694   2
  -2  -9  12-15.4978 35.1001   3
  -2  -9  11 137.698 56.8787   3
   2   9 -11 177.476 65.1597   2
  -2  -9  10 81.7401 46.8469   3
   2   9 -10 98.3758 53.8465   2
   2   9  -9-10.1732 30.1113   2
  -2  -9   9-11.0530 34.8243   3
  -2  -9   8 314.433 80.6554   3
   2   9  -8 352.072 82.3269   2
   2   9  -7 436.803 88.3803   2
  -2  -9   7 418.092 88.9142   3
   2   9  -6 6.74689 27.4272   2
   2  -9  -6 7.22330 12.1260   2
  -2  -9   6 37.2464 32.9285   3
   2  -9  -5 3045.24 150.709   2
   2   9  -5 2900.20 222.005   2
  -2  -9   5 3005.94 215.626   3
   2   9  -4 208.234 62.2195   2
  -2  -9   4 211.542 57.0071   3
   2  -9  -4 181.583 38.0403   2
   2   9  -3 2824.25 197.455   1
   2   9  -3 2230.91 184.700   2
  -2  -9   3 2233.64 175.618   3
   2   9  -2 3744.82 233.556   2
  -2  -9   2 3634.32 217.629   3
   2   9  -2 3786.64 230.417   1
  -2   9   2 4149.18 150.827   2
  -2   9   2 3618.79 220.434   1
  -2  -9   1 3842.89 217.751   3
  -2   9   1 3803.97 153.707   2
  -2   9   1 3611.63 213.724   1
   2   9  -1 3463.27 219.813   2
   2   9  -1 3507.31 223.002   1
  -2  -9   1 3499.38 235.512   2
  -2  -9   0 175.522 48.1651   3
  -2   9   0 230.876 42.8727   2
  -2   9   0 210.199 49.8190   1
  -2  -9   0 152.973 46.5170   2
   2   9   0 112.414 34.2671   1
   2   9   0 177.596 50.0426   2
  -2  -9  -1 183.483 53.5505   2
  -2  -9  -1 160.971 47.3883   3
   2  -9   1 254.111 65.2333   3
  -2   9  -1 218.810 43.9632   2
   2   9   1 157.563 52.7920   1
  -2   9  -1 223.558 49.4999   1
  -2   9  -2 714.576 91.2839   1
  -2   9  -2 766.546 86.2600   2
  -2  -9  -2 619.090 84.4589   3
   2  -9   2 675.795 115.031   3
   2   9   2 641.205 101.107   1
  -2  -9  -2 797.446 111.139   2
   2  -9   3 1382.03 157.682   3
   2   9   3 1720.69 168.303   1
  -2  -9  -3 1400.18 143.943   2
  -2   9  -3 1679.38 140.312   1
  -2   9  -3 1710.97 136.692   2
   2  -9   4 1283.78 156.782   3
  -2  -9  -4 1065.14 124.364   2
   2   9   5 124.461 43.4961   2
  -2  -9  -5 44.7423 35.3867   2
   2  -9   5 33.5416 28.5745   3
   2  -9   6 116.520 54.7875   3
  -2   9  -6 112.982 42.4453   2
  -2  -9  -6 80.7952 37.0848   2
  -2  -9  -6 172.168 53.4698   3
   2  -9   7 19.4784 34.6835   3
  -2  -9  -7 38.6285 29.4419   2
  -2  -9  -7 17.2298 23.3801   3
  -2   9  -7-6.42659 27.9254   2
  -2  -9  -8 46.8462 27.5162   2
   2  -9   8 151.968 70.5396   3
  -2   9  -8 85.2661 49.7379   2
   2  -9   9 587.693 117.316   3
  -2   9  -9 968.702 133.289   2
  -2   9 -10 183.124 67.8722   2
   2  -9  10 229.311 69.2884   3
  -2   9 -11 144.072 62.5310   2
   2  -9  11 185.497 73.6004   3
   2  -9  12 365.988 103.086   3
  -2   9 -12 162.652 60.8178   2
   2  -9  13 90.9917 55.3723   3
  -2   9 -13 39.1966 35.5102   2
   2  -9  14 43.8282 29.2694   3
  -2   9 -14 85.8663 62.6661   2
  -2   9 -15 59.9306 46.8661   2
   2  -9  15 78.4993 37.3430   3
  -2   9 -16 12.5864 31.0826   2
   2  -9  16 22.4932 52.9997   3
  -2   9 -17 72.6193 56.5858   2
   2  -9  17-199.271 86.2972   3
  -2   9 -18-99.2349 60.1753   2
   2  -9  18-22.8627 38.1332   3
  -2   9 -19 31.6978 50.0622   2
  -2   9 -20 29.1264 38.6795   2
   2  10 -18 65.9527 54.7836   2
  -2 -10  18 33.5411 35.7006   3
   2  10 -17 33.0380 42.5309   2
  -2 -10  17-81.4748 61.7996   3
   2  10 -16-80.2258 55.5756   2
  -2 -10  16 113.806 61.7862   3
   2  10 -15 13.0888 40.1937   2
  -2 -10  15 102.769 66.1870   3
   2  10 -14 5.87448 30.5222   2
  -2 -10  14-53.8630 50.4638   3
   2  10 -13 66.7739 54.0492   2
  -2 -10  13 101.667 58.0611   3
  -2 -10  12-19.4851 24.9802   3
   2  10 -12 2.78147 26.9589   2
  -2 -10  11 192.059 75.3325   3
   2  10 -11 154.528 65.8442   2
   2  10 -10 5.48268 30.6796   2
  -2 -10  10 43.9710 43.2828   3
   2  10  -9 37.5911 38.2976   2
  -2 -10   9-6.27313 34.5066   3
   2  10  -8 47.7344 29.4767   2
  -2 -10   8 50.3757 33.1667   3
   2  10  -7 518.277 101.559   2
  -2 -10   7 442.410 93.0657   3
   2  10  -6 568.847 102.800   2
  -2 -10   6 421.320 90.5978   3
  -2 -10   5 89.4645 40.1178   3
   2  10  -5 101.840 49.3611   2
   2  10  -4 545.245 100.669   2
   2  10  -4 567.797 92.7342   1
  -2 -10   4 505.938 88.5888   3
   2  10  -3 94.5024 44.8918   2
   2  10  -3 48.7499 35.2212   1
  -2 -10   3 26.1564 20.7196   3
   2  10  -2 1836.53 170.216   1
  -2 -10   2 2063.93 173.459   3
   2  10  -2 2050.42 178.687   2
   2  10  -1 145.973 49.4452   1
   2  10  -1 88.3561 37.3779   2
  -2  10   1 59.3942 18.4085   2
  -2 -10   1 131.071 44.4377   3
  -2  10   1 192.775 56.9645   1
  -2 -10   0 35.8368 25.2178   3
   2 -10   0 65.2672 48.5519   3
  -2  10   0 7.10049 10.1382   2
  -2  10   0 43.7060 36.7282   1
   2  10   0 62.3539 42.3139   1
   2  10   0 62.5204 27.2417   2
  -2  10  -1 82.8541 33.5371   1
   2 -10   1 71.7960 42.1113   3
  -2  10  -1 216.349 44.4573   2
   2  10   1 143.557 47.1857   2
  -2 -10  -1 74.0939 28.4214   3
   2  10   1 99.6537 29.4931   1
   2  10   2 6.97755 19.8390   2
   2 -10   2-41.0700 48.6306   3
  -2  10  -2 32.5490 26.8269   2
  -2 -10  -2-49.1990 33.8757   3
  -2  10  -2-28.7984 36.9651   1
   2  10   2-15.5128 29.7078   1
  -2 -10  -3 0.88599 16.3178   3
   2  10   3 18.1955 16.8318   2
   2 -10   3 26.0584 33.1218   3
  -2  10  -3 28.0780 30.4141   1
   2  10   3 6.76229 27.6721   1
   2  10   4-16.0923 19.6218   2
  -2 -10  -4 11.8567 21.7155   3
   2 -10   4-26.8749 49.6425   3
  -2  10  -4 26.5053 24.0536   1
  -2  10  -5 97.3676 42.1004   2
  -2  10  -5 93.3143 41.4341   1
   2 -10   5 38.6412 35.2507   3
  -2  10  -6 172.217 55.9803   2
   2 -10   6 125.299 59.6516   3
  -2  10  -7 16.3626 20.5819   2
   2 -10   7 8.76615 36.9013   3
   2 -10   8 329.026 91.1184   3
  -2  10  -8 418.488 87.1100   2
   2 -10   9 34.5484 40.5075   3
  -2  10  -9 102.551 35.0900   2
  -2  10 -10 51.0429 39.8114   2
   2 -10  10 11.5805 31.0824   3
  -2  10 -11 710.200 126.143   2
   2 -10  11 959.517 160.937   3
  -2  10 -12-118.167 56.1839   2
   2 -10  12-19.6876 41.2844   3
   2 -10  13 0.28947 29.6154   3
  -2  10 -13-11.9707 29.9591   2
   2 -10  14-114.301 65.5814   3
  -2  10 -14 2.75758 27.5018   2
  -2  10 -15 31.4426 32.1559   2
   2 -10  15 75.1945 62.7733   3
   2 -10  16-157.952 79.6465   3
  -2  10 -16 78.5826 62.0146   2
   2 -10  17 186.417 92.0211   3
  -2  10 -17 55.7036 41.6743   2
  -2  10 -18 49.7965 63.1649   2
  -2  10 -19 47.0997 53.2777   2
   2  11 -17 6.76494 31.4619   2
   2  11 -16 147.013 83.7276   2
  -2 -11  16 63.4499 68.3526   3
   2  11 -15 95.1589 70.2898   2
  -2 -11  15 12.6610 28.6026   3
   2  11 -14 3.41232 30.8350   2
  -2 -11  14-25.7193 33.0876   3
   2  11 -13 27.4866 37.6201   2
  -2 -11  13 11.5230 36.3711   3
   2  11 -12-15.5942 42.3774   2
  -2 -11  12 60.7657 41.0895   3
   2  11 -11-1.01312 33.4442   2
  -2 -11  11-20.8739 33.9988   3
   2  11 -10-27.7554 46.7472   2
  -2 -11  10-54.4468 49.6758   3
  -2 -11   9-6.26943 26.2793   3
   2  11  -9 110.369 50.1203   2
  -2 -11   8 107.249 51.0443   3
   2  11  -8 190.569 59.8891   2
   2  11  -7 47.7721 32.3541   2
  -2 -11   7 35.2280 35.1342   3
   2  11  -6-46.7544 43.9729   2
  -2 -11   6-42.4046 41.8509   3
   2  11  -6-5.64120 40.9108   1
   2  11  -5-0.53442 21.8479   1
  -2 -11   5-2.29410 41.7935   3
   2  11  -5 0.76913 25.9040   2
   2  11  -4 115.824 50.8536   1
  -2 -11   4 130.381 55.7188   3
   2  11  -4 34.4745 30.4146   2
   2  11  -3-42.0576 38.9060   2
  -2 -11   3-13.7402 31.7079   3
   2  11  -3 58.4969 26.1976   1
   2  11  -2 11.0927 17.6104   2
   2  11  -2-18.6038 33.1358   1
   2 -11  -1 59.2686 48.5911   3
   2  11  -1 1.84275 36.3223   1
   2  11  -1-84.3705 39.2886   2
  -2  11   0 265.103 69.4245   1
   2 -11   0 201.270 64.3220   3
   2  11   0 188.389 62.5774   1
   2  11   0 173.037 52.5054   2
  -2  11  -1 168.885 49.5539   1
   2  11   1 145.376 62.5054   1
   2  11   1 193.978 53.4798   2
   2 -11   1 157.384 54.4062   3
   2 -11   2 65.8901 50.4894   3
  -2  11  -2 98.2526 41.9479   1
   2  11   2 82.6545 35.9334   2
   2  11   2 109.590 46.9059   1
  -2  11  -3 13.7994 21.2620   1
   2  11   3 24.9539 20.2493   2
   2 -11   3-34.3863 38.3057   3
   2  11   4 112.669 43.2111   2
   2 -11   4 149.677 68.2318   3
  -2  11  -4 133.296 45.5398   1
   2 -11   5 213.488 74.8158   3
  -2  11  -5 306.052 71.2951   1
  -2  11  -6 165.520 63.2283   1
   2 -11   6 59.4309 37.9359   3
   2 -11   7 126.452 59.7521   3
   2 -11   8 9.71781 33.5677   3
   2 -11   9-43.4286 46.2535   3
   2 -11  10 27.4153 36.8922   3
   2 -11  11 68.7690 46.7613   3
   2 -11  12-28.2922 38.7917   3
   2 -11  13 93.4131 65.8650   3
   2 -11  14-57.6446 50.4388   3
   2 -11  15 51.1640 64.2048   3
   2  12  -7 32.0392 49.5053   1
   2  12  -6 261.472 77.3652   1
   2  12  -5-29.4378 37.5911   1
   2  12  -4 61.1551 38.3464   1
   2  12  -3 21.9797 34.6103   1
   2  12  -2 87.9465 45.2335   1
   2  12  -1 2.57187 37.6759   1
   2  12   0-6.59569 30.1698   1
  -2  12   0 44.5853 39.4763   1
  -2  12  -1 34.6447 34.3929   1
   2  12   1-47.6738 41.9802   1
  -2  12  -2 22.4162 26.9927   1
   2 -12   2-16.4182 32.3708   3
  -2  12  -3 91.4377 44.4146   1
   2 -12   3 147.370 49.7580   3
   2 -12   4-100.654 53.8531   3
   2 -12   5 11.5866 28.7196   3
   2 -12   6 131.492 61.5102   3
   2 -12   7 14.6451 30.8120   3
   2 -12   8-18.1247 32.7082   3
   2 -12   9 78.0085 58.2756   3
   2 -12  10 81.1844 61.3819   3
   2 -12  11 18.9149 58.6229   3
   2 -12  12 10.6962 28.8121   3
   2  13  -6 56.4745 46.2667   1
   2  13  -5 239.017 85.2551   1
   2  13  -4 361.956 99.0219   1
   2  13  -3 112.320 62.7385   1
   2  13  -2 95.7033 44.8972   1
   2  13  -1-121.268 59.1293   1
   2  13   0-11.4641 52.2803   1
  -3   0  25 41.8483 64.7016   3
  -3   0  24 13.9871 41.4913   3
  -3   0  23 2.62624 48.7719   3
  -3   0  22 99.1278 77.5463   3
  -3   0  21 7.89958 50.1071   3
  -3   0  20-1.84488 52.4152   3
  -3   0  19 3397.12 319.409   3
  -3   0  18 127.347 88.2284   3
  -3   0  17 945.064 160.823   3
  -3   0  16 32.8576 47.9856   3
  -3   0  15 665.626 127.515   3
   3   0 -15 437.299 93.3764   3
   3   0 -14 78.6701 52.4457   3
  -3   0  14 131.985 70.2729   3
   3   0 -13 18720.5 543.524   3
   3   0 -12-27.1982 35.3447   3
   3   0 -11 187.745 49.5117   3
   3   0 -10-13.1002 23.4426   3
   3   0  -9 23961.8 525.089   3
   3   0  -8 3.05474 21.1430   3
   3   0  -7 8402.37 276.923   3
   3   0  -6-16.4231 22.4829   3
   3   0  -5 1087.91 88.6475   3
   3   0  -4 5.26100 20.1691   2
   3   0  -4-11.7394 17.2500   3
   3   0  -3 753.583 64.1630   2
   3   0  -3 711.454 66.5916   3
  -3   0   3 643.221 56.1885   2
  -3   0   2-12.5748 16.0462   2
   3   0  -2-4.50669 15.5973   2
  -3   0   1 4474.14 117.796   2
   3   0  -1 4586.75 118.964   2
  -3   0   0-1.92212 8.81588   2
   3   0   0 9.27290 9.01708   2
  -3   0  -1 22.2062 9.59289   1
  -3   0  -1 48.4211 17.2907   2
   3   0   1 28.0693 9.85913   1
  -3   0  -2 28.0923 14.5251   2
   3   0   3 3853.35 130.298   3
  -3   0  -3 4038.01 127.864   2
   3   0   4-0.30177 21.5919   3
  -3   0  -4-5.70606 15.0180   3
   3   0   5 4308.31 165.719   3
  -3   0  -5 4373.50 167.699   3
  -3   0  -6 7.51764 14.0916   3
   3   0   6-5.97253 19.7233   3
   3   0   7 542.786 69.1872   3
  -3   0  -7 625.152 74.6587   3
  -3   0  -8 9.96745 17.9237   3
   3   0   8-7.94531 21.9164   3
  -3   0  -9 2012.34 148.852   3
   3   0   9 2073.89 148.718   3
  -3   0 -10-41.7372 35.2123   3
  -3   0 -11 13514.3 424.031   3
   3   0  12-1.67281 29.0182   3
  -3   0 -12 13.5465 23.2354   3
  -3   0 -13 18015.8 534.918   3
   3   0  13 16697.3 520.269   3
  -3   0 -14 13.9554 36.6558   3
   3   0  14 8.01037 36.3238   3
  -3   0 -15 958.140 136.267   3
   3   0  15 901.912 129.984   3
   3   0  16-36.0529 45.7334   3
   3   0  17 59.6041 46.3602   3
   3   0  18 11.6537 35.8594   3
   3   0  19 983.355 165.422   3
   3   0  20-17.2285 38.8838   3
   3   0  21 446.808 117.329   3
   3   0  22 87.1992 58.2278   3
   3   0  23 102.391 69.7138   3
   3   0  24 35.4489 46.9773   3
   3   0  25-81.0342 68.7132   3
  -3  -1  25-55.1221 66.9129   3
  -3  -1  24 50.5236 41.6762   3
  -3   1  24 142.452 96.0197   3
  -3   1  23-58.5810 60.8086   3
  -3  -1  23-11.5253 39.5435   3
  -3   1  22 278.152 89.6379   3
  -3  -1  22 355.640 119.936   3
  -3   1  21 659.963 151.837   3
  -3  -1  21 810.524 167.005   3
  -3   1  20-2.82913 43.5690   3
  -3  -1  20 42.8366 55.1175   3
  -3  -1  19 64.7343 51.9090   3
  -3   1  19-56.4081 49.9973   3
  -3   1  18 1419.52 202.768   3
  -3  -1  18 1202.56 187.060   3
  -3  -1  17 174.190 68.9264   3
  -3   1  17 276.901 90.8769   3
  -3  -1  16 140.077 69.1385   3
  -3   1  16 157.970 69.5801   3
   3  -1 -15 2118.90 199.382   3
  -3  -1  15 2087.43 211.672   3
   3   1 -15 1959.83 193.910   3
  -3   1  15 1972.81 211.917   3
  -3  -1  14 241.169 71.8443   3
  -3   1  14 498.749 104.705   3
   3   1 -14 457.331 91.4708   3
   3  -1 -14 473.685 93.5400   3
  -3   1  13 504.323 102.154   3
   3   1 -13 442.376 89.4402   3
   3  -1 -13 399.387 82.0732   3
  -3  -1  13 371.730 88.6957   3
   3   1 -12 1372.01 144.551   3
   3  -1 -12 1215.47 136.077   3
   3  -1 -11 0.27358 22.2573   3
   3   1 -11 20.5543 27.8130   3
   3  -1 -10 8191.82 324.879   3
   3   1 -10 7384.44 302.036   3
   3   1  -9 1773.67 142.002   3
   3  -1  -9 1912.08 153.492   3
   3  -1  -8 10236.8 337.794   3
   3   1  -8 10127.6 315.972   3
   3   1  -7 72.1768 31.8489   3
   3  -1  -7 78.7774 30.1760   3
  -3  -1   7 70.0814 36.7133   3
  -3  -1   6-0.88275 19.2513   3
   3  -1  -6 26.7918 25.2165   3
   3   1  -6 30.2549 22.2080   3
  -3  -1   5 46.9892 28.6577   3
   3   1  -5 37.7782 17.6835   3
   3  -1  -5 27.9030 21.0610   3
  -3  -1   4 4312.57 161.372   3
   3   1  -4 4407.23 155.704   3
  -3  -1   4 4514.86 166.689   2
   3   1  -3 26169.9 341.792   3
  -3  -1   3 27546.7 390.237   2
  -3  -1   3 27866.4 370.582   3
   3  -1  -3 27919.1 296.578   2
  -3  -1   2 7856.08 199.169   2
   3  -1  -2 8150.08 137.297   2
  -3  -1   2 8335.25 176.343   3
   3   1  -2 8035.74 166.885   3
  -3   1   2 7999.82 135.824   2
  -3  -1   1 19154.6 292.642   2
  -3   1   1 19471.3 188.429   2
   3  -1  -1 19979.3 189.127   2
   3   1  -1 20546.9 230.758   3
  -3   1   0 237.943 22.1144   2
  -3  -1   0 226.355 33.1149   2
   3  -1   0 233.170 20.7369   2
  -3   1  -1 6434.04 121.855   2
   3   1   1 6713.99 138.399   1
  -3  -1  -1 6217.80 166.939   2
   3   1   2 39150.0 379.031   1
  -3  -1  -2 38594.0 427.807   2
   3   1   2 37550.4 288.995   3
  -3  -1  -3 69767.4 477.975   3
   3   1   3 70673.9 465.877   3
  -3  -1  -3 71223.4 594.447   2
   3   1   4 149.861 27.1919   3
  -3  -1  -4 190.443 30.3274   3
  -3  -1  -4 204.886 33.9517   2
  -3  -1  -5 1997.01 112.466   2
  -3   1  -5 2406.36 133.171   3
  -3  -1  -5 2179.66 108.423   3
   3   1   5 2165.93 106.998   3
  -3   1  -6 17.7352 19.1770   3
   3  -1   6 20.5613 27.2793   3
   3   1   6 11.0710 18.1932   3
  -3  -1  -6 50.5406 21.2206   3
   3  -1   7 1687.64 127.023   3
  -3   1  -7 1781.18 132.154   3
  -3  -1  -7 1731.52 112.891   3
   3   1   7 1781.72 116.767   3
  -3  -1  -8 218.688 47.9567   3
  -3   1  -8 259.732 55.7163   3
   3   1   8 212.179 48.5116   3
  -3   1  -9 6660.77 281.680   3
   3   1   9 6099.96 250.441   3
  -3  -1  -9 6320.05 250.543   3
  -3   1 -10-26.4241 30.3175   3
  -3  -1 -10-16.0376 24.9053   3
   3   1  10 10.7396 25.8734   3
  -3  -1 -11 16.4540 23.7414   3
  -3   1 -11 79.3489 40.3237   3
  -3   1 -12 272.765 69.9136   3
  -3  -1 -12 240.595 55.7950   3
   3  -1  12 278.740 67.0624   3
  -3   1 -13-20.4387 26.7339   3
   3   1  13 11.1366 28.3425   3
  -3  -1 -13-17.3757 18.9383   3
   3  -1  13-0.31643 35.5547   3
  -3  -1 -14 128.238 49.2239   3
   3  -1  14 175.406 61.4781   3
   3   1  14 168.695 61.4588   3
  -3   1 -14 208.367 61.1968   3
   3   1  15 142.917 57.2380   3
   3  -1  15 103.116 58.1651   3
  -3  -1 -15 78.0053 38.1233   3
   3  -1  16 160.587 61.2505   3
   3   1  16 229.885 71.4475   3
   3  -1  17 863.625 144.459   3
   3   1  17 760.668 132.933   3
   3   1  18 129.078 54.1577   3
   3  -1  18 205.081 79.2629   3
   3  -1  19 760.045 145.946   3
   3   1  19 805.991 152.241   3
   3  -1  20 1431.40 211.915   3
   3   1  20 1476.02 208.686   3
   3   1  21 565.622 131.854   3
   3  -1  21 389.412 105.102   3
   3   1  22 77.7324 71.7582   3
   3  -1  22 19.9809 56.7305   3
   3  -1  23 22.1994 58.9293   3
   3   1  23 2.80699 41.3746   3
   3   1  24 63.7819 54.2401   3
   3  -1  24 65.5654 54.7683   3
   3  -1  25-147.744 84.4369   3
   3   1  25-36.7572 57.9183   3
   3   1  26 12.4799 65.9034   3
  -3  -2  25 139.908 89.6372   3
  -3  -2  24 68.4618 46.4443   3
  -3  -2  23 193.424 101.710   3
  -3  -2  22 11.1448 41.0895   3
  -3  -2  21 90.8353 49.2647   3
  -3  -2  20 190.035 82.6826   3
  -3  -2  19 399.110 117.750   3
  -3  -2  18 3545.42 312.712   3
  -3  -2  17 893.821 153.874   3
  -3  -2  16 1463.52 184.995   3
  -3  -2  15 15.9313 40.0114   3
   3  -2 -15 87.8571 56.2264   3
  -3  -2  14 651.897 110.165   3
   3  -2 -14 561.164 102.887   3
   3   2 -14 622.477 106.001   3
   3  -2 -13 12.7178 30.7402   3
   3   2 -13-9.49739 25.4447   3
  -3  -2  13 29.0651 38.7913   3
   3   2 -12 1778.34 165.379   3
  -3  -2  12 1505.73 158.742   3
   3  -2 -12 1670.36 161.690   3
   3  -2 -11 84.9164 44.3239   3
   3   2 -11 10.9684 21.7555   3
  -3  -2  11 11.0878 22.5609   3
   3   2 -10 47.6250 31.1414   3
   3  -2 -10 61.4621 32.4026   3
  -3  -2  10-18.6384 31.2797   3
  -3  -2   9 709.091 94.4978   3
   3   2  -9 762.298 92.1028   3
   3  -2  -9 894.528 110.559   3
   3  -2  -8 11094.0 370.768   3
  -3  -2   8 11213.1 350.149   3
   3   2  -8 10758.1 328.053   3
  -3  -2   7 5242.79 225.485   3
   3   2  -7 5118.66 217.090   3
   3  -2  -7 5117.77 245.609   3
   3   2  -6 1264.81 98.4014   3
   3  -2  -6 1175.36 114.993   3
  -3  -2   6 1201.92 101.775   3
  -3  -2   5 317.990 48.0618   3
   3   2  -5 289.720 44.7065   3
  -3  -2   4 6352.23 219.252   2
  -3  -2   4 6473.88 193.637   3
   3   2  -4 6523.59 188.834   3
  -3  -2   3 866.430 63.8863   3
   3   2  -3 843.977 61.0597   3
  -3  -2   3 731.899 72.2649   2
   3   2  -2 1065.24 57.5699   3
  -3  -2   2 1035.21 83.2622   2
   3   2  -2 965.674 77.8966   2
  -3  -2   2 1015.68 58.5699   3
   3  -2  -1 8276.47 92.9255   1
  -3  -2   1 8557.71 136.862   3
  -3  -2   1 8444.96 221.956   2
   3   2  -1 7963.92 126.486   3
   3   2  -1 8343.53 218.792   2
   3   2   0 15387.2 288.743   2
  -3  -2   0 15266.7 293.903   2
  -3  -2  -1 5547.37 177.440   2
   3   2   1 5758.86 149.551   1
   3   2   1 5917.05 176.122   2
   3   2   2 990.722 74.6163   2
   3   2   2 1034.99 69.4579   1
  -3  -2  -2 1021.74 76.3024   2
   3   2   3 27753.6 392.351   1
   3   2   3 27722.7 269.173   3
   3   2   3 28125.7 393.151   2
  -3  -2  -3 27607.0 405.568   2
  -3  -2  -3 27399.6 251.908   3
  -3  -2  -4 224.633 28.2791   3
   3   2   4 221.207 28.7335   3
  -3  -2  -4 188.362 34.6535   2
   3   2   4 229.959 37.9186   2
  -3  -2  -5 7504.93 189.079   3
  -3  -2  -5 7887.41 229.960   2
   3   2   5 7978.21 201.894   3
  -3  -2  -6 7.57947 11.5852   2
  -3  -2  -6 20.6800 13.5989   3
   3   2   6-13.5555 20.7937   3
  -3   2  -6 40.2717 32.1633   3
  -3  -2  -7 1275.71 95.4439   3
  -3  -2  -7 1224.37 101.323   2
  -3   2  -7 1387.13 122.693   3
   3   2   7 1347.29 104.042   3
   3   2   8 1627.13 121.750   3
  -3  -2  -8 1544.46 114.123   3
  -3  -2  -8 1485.62 116.167   2
  -3   2  -8 1432.48 131.430   3
  -3   2  -9 800.617 103.957   3
  -3  -2  -9 687.962 82.0371   3
   3   2   9 760.859 90.0863   3
   3   2  10 6290.10 271.147   3
  -3  -2 -10 5995.43 252.845   3
  -3   2 -10 5942.90 290.290   3
  -3   2 -11 26.6376 35.5179   3
  -3  -2 -11 47.2558 27.1502   3
  -3   2 -12 136.670 55.0805   3
  -3  -2 -12 149.763 44.3965   3
   3  -2  12 99.6248 43.5070   3
   3   2  13 414.254 80.6300   3
  -3  -2 -13 446.090 82.0511   3
  -3   2 -13 500.827 94.0686   3
   3  -2  13 414.649 88.3399   3
   3  -2  14 5658.37 321.978   3
  -3   2 -14 5730.97 331.707   3
  -3  -2 -14 5428.46 296.271   3
   3   2  14 5850.95 326.059   3
  -3  -2 -15 300.022 74.6308   3
   3  -2  15 430.491 97.6797   3
   3   2  15 332.813 85.1148   3
   3   2  16-26.6503 43.9318   3
   3  -2  16 29.5145 38.6069   3
   3   2  17 106.809 61.2567   3
   3  -2  17 36.7946 55.3595   3
   3  -2  18 133.463 75.4303   3
   3   2  18 33.3760 31.1920   3
   3  -2  19 350.260 100.469   3
   3   2  19 206.370 68.6364   3
   3  -2  20 286.766 97.6812   3
   3   2  20 350.047 110.414   3
   3   2  21 320.753 111.633   3
   3  -2  21 263.331 88.2616   3
   3  -2  22 508.138 133.750   3
   3   2  22 341.117 106.394   3
   3   2  23-75.1024 66.1653   3
   3  -2  23-57.4062 51.7973   3
   3  -2  24 54.3505 58.4388   3
   3   2  24 87.7060 67.9296   3
   3   2  25-108.691 76.3023   3
   3   2  26 33.4478 46.2011   3
   3   3 -24 46.2070 49.7515   2
  -3  -3  24-296.423 115.140   3
  -3  -3  23 25.0957 57.9941   3
   3   3 -23-35.0092 49.7004   2
  -3  -3  22 16.4869 44.6930   3
  -3  -3  21 30.4868 51.6861   3
  -3  -3  20 81.1423 53.6151   3
  -3  -3  19 718.616 151.807   3
  -3  -3  18 1223.68 183.954   3
  -3  -3  17 219.207 78.9633   3
  -3  -3  16 34.8130 52.3591   3
  -3  -3  15 212.513 74.2756   3
   3  -3 -14 11.8330 41.6051   3
   3   3 -14 14.6489 33.6773   3
  -3  -3  14 62.0593 50.3911   3
  -3  -3  13 1119.82 144.824   3
   3  -3 -13 1250.84 150.492   3
   3   3 -13 1060.89 138.975   3
   3   3 -13 1041.56 136.720   2
   3   3 -12 1096.53 133.322   3
  -3  -3  12 975.422 130.766   3
   3   3 -12 874.270 121.760   2
   3  -3 -12 1209.75 144.025   3
   3  -3 -11 4144.45 260.318   3
   3   3 -11 4219.52 247.670   3
  -3  -3  11 4020.37 247.773   3
   3   3 -10 1465.55 142.205   3
  -3  -3  10 1409.89 139.619   3
   3  -3 -10 1347.13 148.088   3
  -3  -3   9 2424.69 176.035   3
   3   3  -9 2229.10 164.664   3
   3  -3  -9 2131.56 184.018   3
  -3  -3   8 250.917 59.3330   3
   3  -3  -8 281.470 64.1461   3
   3   3  -8 169.478 46.8341   3
   3   3  -7 4856.54 218.191   3
  -3  -3   7 5153.08 222.815   3
   3   3  -6 12.1381 26.9618   2
   3   3  -6 3.01414 16.3922   3
  -3  -3   6 4.83543 19.4771   3
   3   3  -5 38.7518 28.2392   2
   3   3  -5 50.1827 23.5619   3
  -3  -3   5 42.0793 19.0362   3
  -3  -3   5 51.4791 28.1690   2
   3   3  -4 1950.10 130.793   2
  -3  -3   4 1759.68 126.706   2
   3   3  -4 1909.87 108.841   3
  -3  -3   4 1927.12 109.446   3
   3  -3  -3 8090.73 167.707   1
  -3  -3   3 8044.23 261.611   2
   3   3  -3 8147.50 255.105   2
   3   3  -3 8177.97 203.312   3
  -3  -3   3 7757.21 197.977   3
  -3  -3   2 32717.7 506.157   2
   3   3  -2 31767.1 475.980   2
   3  -3  -2 32373.9 283.706   1
   3   3  -2 32167.5 354.384   3
  -3  -3   2 33087.4 352.658   3
  -3  -3   1 1211.38 95.3213   2
   3   3  -1 1286.10 94.9484   2
  -3   3   1 1312.34 58.9383   1
  -3  -3   1 1441.13 62.1222   3
  -3  -3   0 991.912 43.3928   3
  -3  -3   0 1153.19 89.5373   2
   3   3   0 1249.83 92.7771   2
  -3   3   0 1262.01 53.4023   1
  -3  -3  -1 1626.03 107.400   2
   3   3   1 1717.25 92.6729   1
   3   3   1 1542.36 99.4370   2
   3   3   2 13734.9 295.545   2
  -3  -3  -2 13932.3 315.832   2
   3   3   2 14173.8 280.572   1
  -3  -3  -3 819.477 80.4770   2
  -3  -3  -3 788.789 44.4987   3
   3   3   3 960.398 85.2150   1
   3   3   3 824.425 75.5588   2
  -3  -3  -3 819.218 71.6450   1
  -3  -3  -4 3165.01 102.826   3
  -3  -3  -4 3127.17 153.356   2
   3   3   4 3275.35 146.169   2
   3  -3   4 3058.96 168.298   3
   3   3   5 0.20197 19.9823   2
  -3  -3  -5 18.2494 17.8045   2
  -3  -3  -5 2.80848 12.7390   3
  -3  -3  -6 14028.1 344.976   2
  -3  -3  -6 13163.2 274.456   3
   3   3   6 13848.0 311.169   3
  -3  -3  -7 460.334 63.7752   2
  -3  -3  -7 464.886 55.9457   3
   3   3   7 433.659 63.2431   3
   3   3   8 7400.26 267.193   3
  -3  -3  -8 6963.90 257.782   2
  -3  -3  -8 6560.90 229.038   3
  -3  -3  -9 513.917 69.5591   3
   3   3   9 600.564 84.8481   3
  -3   3  -9 607.375 95.5470   3
  -3  -3  -9 562.603 76.9372   2
  -3  -3 -10 5.97047 17.7981   2
   3   3  10 1.21321 21.9520   3
  -3  -3 -10 17.9189 22.0041   3
  -3   3 -10-26.1439 28.7139   3
  -3  -3 -11 2987.31 187.265   3
  -3   3 -11 3227.67 231.736   3
  -3  -3 -11 3110.49 196.933   2
   3  -3  12 99.0393 38.4491   3
  -3  -3 -12 139.172 48.0273   2
  -3   3 -12 153.699 53.7789   3
  -3  -3 -12 113.115 38.6647   3
   3  -3  13 4476.88 286.410   3
  -3  -3 -13 4421.75 249.420   3
  -3   3 -13 4143.85 278.976   3
  -3  -3 -13 4123.63 260.325   2
   3   3  13 4597.35 277.967   3
   3   3  14 1070.98 141.897   3
  -3  -3 -14 957.273 124.011   3
   3  -3  14 1028.54 140.683   3
  -3  -3 -14 1177.30 138.688   2
   3   3  15 1108.74 151.293   3
  -3  -3 -15 861.996 122.345   3
   3  -3  15 1023.91 147.897   3
   3  -3  16 53.9479 51.4302   3
  -3  -3 -16-29.3908 36.6765   3
   3   3  16 46.8693 41.5743   3
   3   3  17 389.004 108.064   3
   3  -3  17 281.659 85.5181   3
   3   3  18 724.135 143.918   3
   3  -3  18 840.408 152.547   3
   3  -3  19 588.409 127.276   3
   3   3  19 449.457 108.865   3
   3  -3  20 719.141 148.789   3
   3   3  20 753.593 155.128   3
   3  -3  21 619.530 141.231   3
   3   3  21 480.599 124.115   3
   3  -3  22-29.5737 57.9946   3
   3   3  22-51.6420 33.0679   3
   3   3  23 105.020 63.3462   3
   3  -3  23 103.454 88.1235   3
   3  -3  24 172.979 84.6939   3
   3   3  24 162.984 93.3263   3
   3   3  25-66.2706 62.5650   3
   3   3  26-70.6036 63.4273   3
   3   4 -24 148.126 82.3374   2
  -3  -4  24 32.5177 54.1241   3
   3   4 -23 250.876 106.157   2
  -3  -4  23 132.457 83.1389   3
  -3  -4  22 46.0039 39.8237   3
   3   4 -22 126.691 73.8386   2
   3   4 -21 124.167 60.8568   2
  -3  -4  21 148.736 90.1760   3
   3   4 -20 152.698 79.2121   2
  -3  -4  20 258.667 91.8677   3
   3   4 -19 5.60600 38.8823   2
  -3  -4  19 90.9241 61.3838   3
  -3  -4  18 1367.91 194.163   3
   3   4 -18 1646.64 205.006   2
  -3  -4  17 173.880 72.2045   3
   3   4 -17 203.061 89.2405   2
   3   4 -16 2.67736 34.8261   2
  -3  -4  16 156.260 79.8366   3
  -3  -4  15 2293.95 228.197   3
   3   4 -15 2048.67 210.290   2
   3  -4 -14 42.1318 36.8801   3
   3   4 -14 63.7726 48.9384   2
  -3  -4  14-8.62887 31.2547   3
   3  -4 -13 1172.91 152.513   3
   3   4 -13 1139.03 146.681   3
   3   4 -13 1237.44 158.643   2
  -3  -4  13 1086.48 150.487   3
   3  -4 -12 484.737 95.0514   3
   3   4 -12 526.466 104.787   2
   3   4 -12 391.778 85.4326   3
  -3  -4  12 311.962 71.5987   3
  -3  -4  11 841.742 115.935   3
   3   4 -11 739.743 119.412   2
   3   4 -11 838.594 117.211   3
   3  -4 -11 908.477 124.069   3
   3   4 -10 821.900 109.971   3
   3   4 -10 631.514 101.971   2
   3  -4 -10 689.130 110.439   3
  -3  -4  10 608.949 94.8339   3
   3  -4  -9 6531.52 319.921   3
   3   4  -9 6497.93 295.955   3
  -3  -4   9 6468.87 289.809   3
   3   4  -9 6086.03 301.907   2
   3  -4  -8 738.181 106.861   3
   3   4  -8 694.584 93.5379   3
  -3  -4   8 877.254 104.700   3
  -3  -4   7 116.863 39.2820   3
   3   4  -7 91.7634 36.8244   3
   3   4  -6 14086.8 367.184   3
  -3  -4   6 14013.4 361.327   3
   3  -4  -6 13999.4 315.181   1
   3  -4  -6 14572.3 245.217   2
  -3  -4   5 3865.06 177.537   3
   3  -4  -5 3882.75 151.524   1
   3  -4  -5 4172.10 117.237   2
  -3  -4   5 3820.57 206.147   2
   3   4  -5 3935.22 208.027   2
   3   4  -5 3914.20 179.247   3
  -3  -4   4 943.704 80.1743   3
  -3  -4   4 904.891 97.4709   2
   3  -4  -4 900.671 66.4190   1
   3  -4  -4 902.483 48.1265   2
   3   4  -4 916.926 80.9319   3
   3   4  -4 792.685 91.2163   2
  -3  -4   3 365.474 62.5005   2
   3  -4  -3 386.549 40.3853   1
   3   4  -3 276.432 53.8667   2
  -3  -4   3 306.850 43.4750   3
  -3  -4   2 1648.53 88.8583   3
  -3  -4   2 1625.20 123.801   2
   3   4  -2 1550.81 115.403   2
  -3  -4   1 2417.09 146.457   2
  -3  -4   1 2566.87 98.8877   3
  -3   4   1 2110.96 90.7056   1
   3   4  -1 2447.22 141.937   2
  -3  -4   0 6858.82 239.671   2
  -3   4   0 6302.69 119.840   2
  -3  -4   0 6502.90 144.996   3
  -3   4   0 6534.56 146.390   1
   3   4   0 6504.32 226.121   2
  -3   4  -1 470.093 42.9589   2
   3   4   1 469.752 56.5114   1
  -3  -4  -1 480.992 64.6955   2
  -3  -4  -1 412.124 34.9491   3
   3   4   1 442.227 58.8974   2
   3   4   2 1116.25 89.9058   2
  -3   4  -2 1113.55 72.6430   2
   3   4   2 1097.02 86.6919   1
  -3  -4  -2 1063.75 95.0942   2
  -3  -4  -3 13.4291 7.75180   3
  -3  -4  -3-3.36316 14.5984   2
   3   4   3 22.3479 26.2208   1
   3   4   3 11.0198 14.3436   2
  -3  -4  -4 10169.1 305.029   2
   3   4   4 9859.50 292.370   1
   3   4   4 10314.8 278.542   2
  -3  -4  -4 10339.2 209.387   3
   3  -4   4 9663.81 324.491   3
  -3  -4  -5 4594.41 153.801   3
  -3  -4  -5 5029.67 216.837   2
   3   4   5 5055.68 200.912   2
   3  -4   5 4806.33 233.296   3
   3  -4   6 5754.40 263.753   3
  -3  -4  -6 5810.58 237.535   2
  -3  -4  -6 5789.36 186.010   3
  -3  -4  -7 96.8017 26.0711   3
   3  -4   7 75.6232 38.0646   3
  -3  -4  -7 105.201 32.4891   2
   3  -4   8 61.8573 37.4792   3
  -3  -4  -8 57.3068 24.4341   3
  -3  -4  -8 31.6433 13.7121   2
  -3  -4  -9 6177.89 267.471   1
  -3  -4  -9 6159.66 238.008   3
   3  -4   9 5726.99 294.930   3
  -3  -4  -9 6069.34 266.607   2
   3  -4  10 1036.76 130.931   3
  -3  -4 -10 921.234 106.361   1
  -3  -4 -10 995.670 103.068   3
  -3  -4 -10 1022.77 112.536   2
  -3  -4 -11 1639.16 146.478   2
   3  -4  11 1414.54 155.047   3
  -3  -4 -11 1450.60 131.632   3
  -3  -4 -11 1432.57 142.460   1
  -3   4 -12 347.020 82.4703   3
  -3  -4 -12 197.583 51.3360   3
  -3  -4 -12 254.808 61.4206   2
   3  -4  12 286.648 77.3368   3
   3  -4  13 476.505 98.0353   3
  -3  -4 -13 442.754 81.9419   2
  -3  -4 -13 499.598 86.1149   3
  -3  -4 -14 281.299 68.4293   2
   3  -4  14 261.056 75.5522   3
  -3  -4 -14 266.708 68.1676   3
   3   4  14 249.746 71.7876   3
  -3  -4 -15 55.2928 37.0837   3
   3   4  15 85.9278 45.2867   3
   3  -4  15 59.8144 62.2527   3
  -3  -4 -16 207.159 67.4634   3
   3   4  16 138.608 58.0815   3
   3  -4  16 212.044 76.0954   3
   3   4  17 1360.84 182.969   3
   3  -4  17 1270.14 180.427   3
   3  -4  18 74.2029 52.6985   3
   3  -4  19 52.6429 51.3024   3
   3  -4  20 197.990 80.5326   3
   3  -4  21 121.889 66.4955   3
   3  -4  22 20.7250 48.3131   3
   3  -4  23 12.1813 38.6026   3
   3   5 -23 360.089 122.134   2
  -3  -5  23 156.023 84.3148   3
  -3  -5  22-8.41361 62.0776   3
   3   5 -22 132.875 90.7520   2
   3   5 -21-7.57424 52.4344   2
  -3  -5  21-98.9871 66.4460   3
  -3  -5  20-9.92973 37.3542   3
   3   5 -20-38.1120 57.3896   2
   3   5 -19 513.594 126.768   2
  -3  -5  19 573.938 136.182   3
   3   5 -18-28.9536 44.7350   2
  -3  -5  18 17.2871 43.2882   3
  -3  -5  17 415.509 112.904   3
   3   5 -17 448.424 107.130   2
   3   5 -16 48.1395 54.4895   2
  -3  -5  16-52.6066 37.9191   3
  -3  -5  15 1558.77 191.524   3
   3   5 -15 1505.04 186.753   2
   3   5 -14 621.751 127.581   2
  -3  -5  14 748.385 131.239   3
   3  -5 -13 1494.72 178.048   3
   3   5 -13 1345.73 167.145   3
   3   5 -13 1339.42 171.761   2
  -3  -5  13 1422.34 171.624   3
   3   5 -12 3005.51 238.394   3
   3  -5 -12 2832.92 176.458   2
   3  -5 -12 3174.17 253.001   3
   3   5 -12 3041.37 241.625   2
  -3  -5  12 3242.15 245.536   3
   3  -5 -11 72.9359 24.9700   2
   3  -5 -11 26.9469 21.5282   3
  -3  -5  11 96.2354 49.5041   3
   3   5 -11 74.6179 42.7643   2
   3   5 -11 104.245 46.8099   3
   3   5 -10 248.490 73.1292   2
   3  -5 -10 190.110 65.4038   3
   3  -5 -10 294.242 48.1810   2
  -3  -5  10 250.650 61.8078   3
   3   5 -10 247.789 63.7240   3
   3   5  -9 260.836 69.8202   2
  -3  -5   9 243.325 64.2384   3
   3   5  -9 211.194 57.7549   3
   3  -5  -9 196.507 55.6824   3
   3  -5  -9 258.840 42.6800   2
   3   5  -8 1217.24 136.123   2
   3  -5  -8 1057.48 81.0503   2
  -3  -5   8 942.774 112.281   3
   3   5  -8 1109.59 119.273   3
   3  -5  -7 1579.18 91.1243   2
   3  -5  -7 1498.05 111.143   1
  -3  -5   7 1519.47 132.865   3
   3   5  -7 1405.70 129.449   3
   3  -5  -6 2143.31 98.0265   2
   3   5  -6 2056.18 147.378   3
  -3  -5   6 2199.39 148.853   3
   3  -5  -6 1931.07 118.126   1
  -3  -5   5 2251.82 169.155   2
   3  -5  -5 2253.12 117.164   1
  -3  -5   5 2296.52 145.212   3
   3  -5  -5 2253.31 93.0089   2
  -3  -5   4 1236.21 100.057   3
  -3  -5   4 1119.47 115.987   2
   3  -5  -4 1227.64 83.4030   1
   3  -5  -4 1081.44 56.8210   2
  -3  -5   3 219.807 39.9419   3
  -3  -5   3 189.717 47.5503   2
   3  -5  -3 171.910 20.7132   2
   3   5  -3 173.562 43.8621   2
  -3   5   2 1511.39 95.2953   1
  -3  -5   2 1464.82 129.098   2
  -3  -5   2 1543.71 98.1323   3
   3   5  -2 1427.26 118.743   2
   3   5  -1 752.251 85.9864   2
  -3   5   1 953.979 45.9886   2
  -3   5   1 749.962 63.2643   1
  -3  -5   1 868.776 97.0527   2
  -3  -5   1 813.429 68.6098   3
   3   5   0 607.972 85.7850   1
  -3  -5   0 769.573 88.5423   2
  -3   5   0 720.792 47.5857   2
  -3  -5   0 733.091 58.6795   3
   3   5   0 752.029 83.1726   2
  -3   5   0 753.461 57.8970   1
  -3  -5  -1 7917.46 179.268   3
  -3  -5  -1 7687.90 271.780   2
  -3   5  -1 8061.49 182.867   2
   3   5   1 7925.64 247.642   1
   3   5   1 7694.22 259.237   2
   3   5   2 58.1648 24.8342   2
   3   5   2 55.6650 30.6230   1
  -3   5  -2 39.9632 20.3209   2
  -3  -5  -2 23.5264 15.7109   2
  -3   5  -3 1694.77 107.305   2
  -3  -5  -3 1474.78 120.684   2
   3   5   3 1433.11 111.712   2
   3   5   3 1502.98 117.357   1
  -3   5  -4 1479.69 106.849   2
   3   5   4 1413.55 121.080   1
   3   5   4 1387.74 108.484   2
  -3  -5  -4 1426.30 89.5538   3
  -3  -5  -4 1390.28 120.144   2
   3  -5   4 1378.68 129.751   3
  -3  -5  -5 16267.9 386.143   1
  -3  -5  -5 14250.5 394.975   2
  -3   5  -5 14018.1 355.533   2
   3  -5   5 14249.0 428.003   3
   3   5   5 14560.8 354.133   2
  -3  -5  -5 14318.8 295.772   3
  -3  -5  -6 1541.28 103.431   3
  -3  -5  -6 1499.37 130.381   2
  -3  -5  -6 1417.08 114.594   1
   3   5   6 1523.11 116.667   2
   3  -5   6 1147.08 130.156   3
  -3  -5  -7 331.555 62.2022   2
  -3  -5  -7 437.815 57.6168   3
   3  -5   7 288.801 70.8520   3
  -3  -5  -7 460.045 68.2423   1
   3  -5   8 25.5269 29.0472   3
  -3  -5  -8 32.2519 22.8720   2
  -3  -5  -8 5.43792 20.3374   1
  -3  -5  -8 27.0329 12.6568   3
  -3  -5  -9 227.705 48.0215   3
  -3  -5  -9 332.866 65.5747   2
   3  -5   9 470.757 90.7613   3
  -3  -5  -9 301.347 61.2371   1
   3  -5  10 119.118 52.9597   3
  -3  -5 -10 134.793 46.0178   1
  -3  -5 -10 143.666 42.0404   2
  -3  -5 -10 129.630 42.6575   3
  -3  -5 -11 381.632 73.3776   1
   3  -5  11 377.032 90.6559   3
  -3  -5 -11 347.514 64.1213   3
  -3  -5 -11 389.563 74.8259   2
  -3  -5 -12 23.9343 25.5514   2
   3  -5  12 4.36713 37.0028   3
  -3  -5 -12-6.71823 19.0951   3
  -3  -5 -13 593.131 93.6539   3
  -3  -5 -13 746.473 111.689   2
   3  -5  13 663.746 118.923   3
   3  -5  14 1688.54 194.312   3
  -3  -5 -14 1462.79 152.543   3
  -3  -5 -15 50.4143 39.7714   3
   3  -5  15 23.8365 34.5951   3
  -3  -5 -16 898.342 129.051   3
   3  -5  16 1097.17 163.873   3
   3  -5  17 13.7252 33.9076   3
   3  -5  18 101.541 69.7962   3
   3  -5  19-57.0547 65.7335   3
   3  -5  20 76.1733 59.2061   3
   3  -5  21-13.7360 49.9530   3
   3  -5  22 141.406 79.5301   3
   3   6 -22 164.385 93.0306   2
  -3  -6  22 325.913 116.592   3
  -3  -6  21 62.8668 57.1112   3
   3   6 -21 57.4849 33.7350   2
   3   6 -20-124.967 69.0167   2
  -3  -6  20-10.9155 46.2933   3
   3   6 -19 88.0119 66.2077   2
  -3  -6  19-92.4229 66.8346   3
  -3  -6  18 59.2503 55.7598   3
   3   6 -18 67.9904 51.8701   2
  -3  -6  17-55.6416 51.6370   3
   3   6 -17 55.1989 52.3955   2
   3   6 -16 1263.78 186.563   2
   3  -6 -16 1084.63 126.631   2
  -3  -6  16 1189.31 176.301   3
   3  -6 -15 113.821 41.1303   2
  -3  -6  15 44.9943 44.8977   3
   3   6 -15 121.408 65.9735   2
  -3  -6  14 1862.73 208.978   3
   3   6 -14 1954.50 215.940   2
   3  -6 -14 1899.85 153.832   2
   3  -6 -13 4333.71 221.771   2
   3   6 -13 4224.71 310.724   2
  -3  -6  13 4851.00 317.084   3
   3  -6 -13 4574.90 317.050   3
   3  -6 -12 1457.36 123.766   2
   3   6 -12 1384.23 177.377   2
   3   6 -12 1531.06 174.379   3
   3  -6 -12 1462.57 142.356   1
   3  -6 -12 1444.00 177.651   3
  -3  -6  12 1581.27 176.010   3
   3  -6 -11-14.4239 17.1711   1
   3  -6 -11-8.63011 15.4067   2
  -3  -6  11 0.17267 27.0149   3
   3  -6 -11-41.7666 24.1546   3
   3   6 -11-33.8414 23.5763   3
   3   6 -10 293.618 73.1795   3
   3  -6 -10 266.975 71.0853   3
   3   6 -10 221.424 67.6937   2
  -3  -6  10 232.473 63.6283   3
   3  -6 -10 237.863 54.0827   1
   3  -6 -10 237.497 45.3230   2
   3   6  -9 67.3872 38.2573   3
   3  -6  -9 185.072 47.2207   1
   3  -6  -9 129.126 51.5261   3
   3   6  -9 243.207 70.9204   2
   3  -6  -9 219.080 43.0778   2
  -3  -6   9 116.066 52.3460   3
   3  -6  -8 16.7819 14.3428   2
  -3  -6   8 10.4239 22.7881   3
   3   6  -8 4.37133 30.8660   2
   3   6  -7 557.985 97.5268   2
  -3  -6   7 465.052 76.1917   3
   3  -6  -7 527.652 56.7242   2
   3  -6  -6 134.573 27.3792   2
   3   6  -6 93.4987 43.4964   2
  -3  -6   6 85.6066 37.0728   3
  -3  -6   5 1116.24 106.910   3
   3  -6  -5 935.938 61.8848   2
   3  -6  -4 68.0514 18.8655   2
  -3  -6   4 59.4451 28.2530   2
  -3  -6   4 73.0964 26.9414   3
   3  -6  -3 1725.03 772.466   2
  -3  -6   3 1744.00 1536.82   2
  -3  -6   3 1533.53 1194.61   3
  -3  -6   2 1333.84 100.266   3
  -3   6   2 1525.91 60.7495   2
  -3  -6   2 1438.73 136.334   2
  -3   6   2 1403.30 102.020   1
  -3  -6   1 1390.64 99.4794   3
  -3  -6   1 1457.68 133.570   2
  -3   6   1 1541.20 69.4266   2
  -3   6   1 1324.60 94.0056   1
   3   6  -1 1458.28 129.861   2
   3   6   0 930.048 98.0946   1
  -3  -6   0 703.964 93.9445   2
  -3   6   0 760.372 56.9340   2
  -3  -6   0 580.503 60.9941   3
  -3   6   0 785.682 72.2672   1
   3   6   0 877.097 99.2277   2
  -3   6  -1 465.739 49.7144   2
  -3  -6  -1 427.074 69.8857   2
   3   6   1 529.457 73.5042   2
  -3   6  -1 546.805 57.2318   1
  -3  -6  -1 505.354 52.1068   3
   3   6   1 480.975 65.9722   1
   3   6   2 85.9457 33.8786   1
  -3   6  -2 75.2643 22.9747   2
  -3  -6  -2 80.4886 31.4543   2
   3   6   2 92.7185 32.5536   2
  -3  -6  -3 259.802 562.878   2
  -3   6  -3 264.183 461.984   2
   3   6   3 335.030 646.862   1
   3   6   3 264.968 514.257   2
  -3  -6  -4 2034.88 119.340   3
   3   6   4 2007.09 149.213   1
  -3  -6  -4 1882.16 148.577   2
  -3   6  -4 1911.54 131.525   2
   3  -6   4 1857.31 161.455   3
  -3  -6  -5 268.962 61.6450   2
  -3   6  -5 310.705 55.7725   2
  -3  -6  -5 316.413 49.8847   3
   3  -6   5 262.283 64.4936   3
   3  -6   6 471.962 86.2024   3
  -3  -6  -6 628.886 87.4864   2
  -3  -6  -6 511.756 61.7288   3
  -3   6  -6 569.964 84.5791   2
  -3  -6  -7 1011.45 108.417   1
  -3  -6  -7 1014.12 92.4229   3
   3  -6   7 1084.99 135.035   3
  -3  -6  -7 1014.72 117.281   2
  -3  -6  -8 229.787 54.3800   1
  -3  -6  -8 172.344 34.3402   3
  -3  -6  -8 155.325 46.7643   2
   3  -6   8 135.582 65.3433   3
   3  -6   9 397.214 89.4426   3
  -3   6  -9 512.568 88.0435   2
  -3  -6  -9 215.371 48.4330   3
  -3  -6  -9 269.582 63.4126   2
  -3  -6  -9 270.268 59.5576   1
  -3  -6 -10 267.938 65.5510   2
  -3  -6 -10 217.109 50.3911   3
   3  -6  10 321.064 80.8979   3
   3  -6  11 1050.09 153.955   3
  -3  -6 -11 1301.68 143.777   2
  -3  -6 -11 1132.05 117.969   3
   3  -6  12 52.5356 39.2494   3
  -3  -6 -12 54.6965 32.4675   3
  -3  -6 -12 31.1782 31.1937   2
   3  -6  13 567.180 114.993   3
  -3  -6 -13 409.305 87.1677   2
  -3  -6 -13 539.385 89.5479   3
   3  -6  14 66.1953 54.4814   3
  -3  -6 -14 67.3699 31.3601   3
   3  -6  15 119.871 65.8505   3
  -3  -6 -15 96.5549 46.2432   3
   3  -6  16 68.2362 68.2232   3
  -3  -6 -16 5.68157 22.8453   3
   3  -6  17 60.7667 41.4658   3
   3  -6  18 203.266 76.9874   3
   3  -6  19 616.369 131.997   3
   3  -6  20-31.4249 40.9503   3
   3  -6  21 66.8670 58.4799   3
  -3  -7  22 41.3217 68.0644   3
  -3  -7  21-83.9292 66.6791   3
   3   7 -21-22.8037 52.8390   2
  -3  -7  20-40.6277 64.2545   3
   3   7 -20-37.5771 73.9542   2
  -3  -7  19-9.46524 56.3141   3
   3   7 -19-12.0477 38.5820   2
   3   7 -18 18.8888 49.9829   2
  -3  -7  18-73.8835 62.3738   3
   3   7 -17-3.09443 43.8492   2
  -3  -7  17-3.76728 39.0662   3
  -3  -7  16 67.2123 56.7238   3
   3   7 -16-49.5933 53.3762   2
   3   7 -15 376.882 97.8934   2
  -3  -7  15 345.400 96.1309   3
  -3  -7  14 476.048 106.103   3
   3   7 -14 325.599 87.4730   2
   3  -7 -14 254.591 56.8207   2
  -3  -7  13 2665.44 245.414   3
   3   7 -13 2588.58 252.783   2
   3  -7 -13 2489.79 173.658   2
   3  -7 -12 386.169 65.0285   2
  -3  -7  12 596.049 112.172   3
   3  -7 -12 299.743 89.1198   3
   3   7 -12 507.606 112.283   2
   3  -7 -11 473.004 80.7731   1
   3  -7 -11 393.605 101.433   3
   3   7 -11 391.900 99.2241   2
   3  -7 -11 387.131 61.7639   2
  -3  -7  11 516.460 103.011   3
   3  -7 -10-39.1452 41.8576   3
   3  -7 -10 30.7985 21.2759   2
  -3  -7  10 5.69461 35.5622   3
   3   7 -10-14.5336 34.6413   2
   3  -7 -10 38.3727 27.5487   1
  -3  -7   9 6197.80 321.020   3
   3   7  -9 6160.79 347.970   2
   3  -7  -9 6229.03 223.785   2
   3  -7  -9 6050.68 254.592   1
  -3  -7   8 292.257 71.9196   3
   3  -7  -8 368.364 62.3938   1
   3   7  -8 253.518 72.3253   2
   3  -7  -8 465.698 55.8343   2
  -3  -7   7 714.137 99.4524   3
   3  -7  -7 639.321 61.1844   2
   3  -7  -7 618.317 83.2944   1
   3   7  -7 676.500 109.160   2
  -3  -7   6 1232.35 126.930   3
   3   7  -6 1433.92 152.523   2
   3  -7  -6 1351.48 82.5950   2
   3   7  -5 1600.09 155.125   2
  -3  -7   5 1508.07 133.648   3
   3  -7  -5 1651.20 87.1348   2
   3   7  -4 2664.41 195.817   2
   3  -7  -4 2960.41 113.785   2
  -3  -7   4 3030.36 215.385   2
  -3  -7   4 2950.37 176.951   3
  -3  -7   3 972.552 98.1195   3
  -3  -7   3 849.474 113.115   2
  -3  -7   2-39.0564 33.5488   2
  -3   7   2 7.60794 6.93517   2
  -3  -7   2 6.97802 15.2148   3
  -3   7   2 18.3227 20.6897   1
  -3  -7   1 24.6884 23.7213   3
  -3  -7   1-1.62665 22.9171   2
  -3   7   1 10.9669 17.1676   1
   3   7  -1 0.20888 27.1886   1
  -3   7   1 11.3280 6.35156   2
   3   7   0 59.8526 24.7180   1
  -3   7   0 66.6271 19.9613   2
  -3  -7   0 51.2882 25.7708   3
  -3  -7   0 48.2063 22.8171   2
  -3   7   0 65.5195 23.1360   1
  -3   7  -1-19.4308 19.6966   2
  -3  -7  -1 21.3743 21.6407   2
  -3  -7  -1-15.4490 16.4507   3
  -3   7  -1-0.27998 17.8275   1
   3   7   2 1997.00 155.369   1
  -3   7  -2 2128.48 123.411   2
  -3  -7  -2 2059.52 164.647   2
   3   7   3 1441.59 137.583   1
   3  -7   3 1482.12 152.421   3
  -3   7  -3 1481.73 113.611   2
  -3  -7  -3 1368.72 132.583   2
   3   7   4 4897.39 258.239   1
  -3   7  -4 4979.66 223.983   2
  -3  -7  -4 5083.05 258.000   2
   3  -7   4 4716.60 277.998   3
  -3   7  -5 119.189 37.9662   2
  -3  -7  -5 95.8276 29.6267   3
  -3  -7  -5 53.3926 35.7957   2
   3  -7   5 143.665 56.5458   3
  -3  -7  -6 260.608 61.3971   2
   3  -7   6 339.839 80.8220   3
  -3  -7  -6 240.423 47.5066   3
  -3  -7  -7 231.451 61.3666   2
  -3  -7  -7 230.411 50.4144   3
   3  -7   7 92.8474 47.5331   3
  -3  -7  -8 2992.79 171.223   3
  -3   7  -8 2992.71 209.247   2
   3  -7   8 2757.97 230.447   3
  -3  -7  -8 2637.48 202.078   2
  -3   7  -9 2297.06 190.618   2
  -3  -7  -9 2120.03 186.510   2
   3  -7   9 2278.00 214.165   3
  -3  -7  -9 2203.86 154.635   3
  -3  -7 -10 127.993 48.8674   2
  -3   7 -10 76.0401 35.5965   2
   3  -7  10 138.300 63.1420   3
  -3  -7 -10 113.353 39.5017   3
  -3  -7 -11-4.42447 16.8464   2
  -3   7 -11-36.0518 44.5603   2
   3  -7  11 14.6537 36.5199   3
  -3  -7 -11 3.41946 14.3978   3
  -3   7 -12 51.1350 46.8530   2
   3  -7  12-12.7780 33.3188   3
  -3  -7 -12 25.1555 34.2133   2
  -3  -7 -12 11.6822 14.9008   3
  -3   7 -13 2635.58 229.901   2
   3  -7  13 2949.09 269.678   3
  -3  -7 -13 2708.70 199.555   3
  -3   7 -14 126.101 65.5535   2
   3  -7  14 40.6312 39.7037   3
  -3  -7 -14 3.45872 36.6612   3
   3  -7  15 2059.32 231.456   3
  -3   7 -15 1633.09 188.949   2
  -3   7 -16 103.547 57.7142   2
   3  -7  16 111.640 66.0874   3
  -3   7 -17 62.2292 35.9381   2
   3  -7  17 40.8895 38.8469   3
   3  -7  18-17.3048 35.6221   3
  -3   7 -18-116.910 62.6415   2
  -3   7 -19 363.175 104.678   2
   3  -7  19 327.874 109.574   3
  -3   7 -20 70.4099 70.1387   2
   3  -7  20 19.6508 42.1579   3
  -3   7 -21 174.649 87.1346   2
  -3   7 -22 36.6349 62.9990   2
  -3  -8  21-93.1724 68.8764   3
   3   8 -20-15.0494 49.2058   2
  -3  -8  20-0.36406 29.9052   3
   3   8 -19-16.6869 39.6948   2
  -3  -8  19-214.352 91.7654   3
  -3  -8  18-6.49221 50.7835   3
   3   8 -18-17.4512 45.7034   2
   3   8 -17-32.7186 49.7520   2
  -3  -8  17-78.5044 57.7677   3
  -3  -8  16-121.083 66.1300   3
   3   8 -16-132.521 72.3098   2
   3   8 -15-36.5554 45.3192   2
  -3  -8  15 27.7111 35.2770   3
   3   8 -14 1372.80 195.152   2
  -3  -8  14 1477.61 195.058   3
   3   8 -13 91.7456 44.8319   2
  -3  -8  13 300.202 85.7704   3
   3   8 -12 368.659 104.061   2
  -3  -8  12 223.312 77.9881   3
   3   8 -11-30.0814 46.4508   2
  -3  -8  11 38.8287 37.3406   3
   3  -8 -10-22.5141 35.6924   1
  -3  -8  10 28.8380 36.0115   3
   3  -8 -10 23.7549 17.7152   2
   3  -8 -10-66.3683 50.0874   3
   3   8 -10-15.5840 41.3281   2
   3   8  -9 384.853 91.7639   2
   3  -8  -9 438.075 56.5075   2
  -3  -8   9 329.373 80.3616   3
  -3  -8   8 66.4755 32.7560   3
   3   8  -8 101.163 50.0626   2
   3  -8  -8 31.8733 17.8914   2
  -3  -8   7 605.346 97.0673   3
   3   8  -7 665.844 112.294   2
   3  -8  -7 687.437 64.2618   2
  -3  -8   6 1289.18 135.239   3
   3  -8  -6 1306.40 83.7116   2
   3   8  -6 1221.67 144.820   2
   3  -8  -5 217.901 33.5105   2
   3   8  -5 156.471 55.9953   2
  -3  -8   5 226.219 56.4544   3
  -3  -8   4-8.56348 18.4517   3
   3   8  -4 11.4045 34.5674   2
  -3  -8   3-33.3474 31.1971   2
   3   8  -3-24.8398 36.1203   2
  -3  -8   3-6.50666 29.1256   3
  -3  -8   2 347.753 62.4731   3
   3   8  -2 258.262 62.8900   2
   3   8  -2 227.804 60.8853   1
  -3  -8   2 270.875 70.2068   2
  -3   8   2 256.832 52.7402   1
  -3  -8   1 66.1897 29.9464   3
   3   8  -1 92.4769 35.3360   1
   3   8  -1 84.6470 39.2761   2
  -3   8   1 111.097 36.9463   1
  -3   8   1 98.4562 20.4691   2
  -3  -8   1 118.319 43.8113   2
   3   8   0 306.066 65.5944   1
   3   8   0 204.998 50.4807   2
  -3  -8   0 268.553 64.8494   2
  -3   8   0 317.756 42.2384   2
  -3   8   0 204.793 44.0010   1
  -3  -8   0 278.338 51.9182   3
  -3  -8  -1-0.40561 20.1082   3
   3   8   1-11.7440 30.1531   1
  -3   8  -1 6.15149 17.4851   1
  -3  -8  -1 7.44199 17.0804   2
  -3   8  -1-23.0795 13.5891   2
  -3  -8  -2 84.5614 39.7328   2
  -3   8  -2 100.470 31.1502   2
   3   8   2 36.7189 27.4515   1
  -3   8  -2 27.0950 19.1224   1
  -3  -8  -2 63.8214 26.8659   3
   3  -8   3 1952.69 184.612   3
   3   8   3 1622.51 156.207   1
  -3   8  -3 1928.37 131.967   2
  -3  -8  -3 1725.91 159.178   2
  -3  -8  -4 2.96512 29.0199   2
   3   8   4-21.0354 25.4481   2
  -3   8  -4-3.17631 15.6332   2
   3  -8   4-4.27036 35.8294   3
   3   8   4 27.9403 36.9100   1
  -3  -8  -5 73.9584 34.0928   3
   3   8   5 59.8766 30.1141   2
  -3  -8  -5 87.8382 35.5541   2
   3  -8   5 34.8599 36.8245   3
   3  -8   6 122.402 69.9769   3
   3   8   6 348.274 62.2696   2
  -3  -8  -6 225.748 57.8905   2
  -3  -8  -6 406.359 63.7687   3
  -3  -8  -7 1209.46 140.692   2
   3  -8   7 1197.44 156.749   3
  -3  -8  -7 1329.27 117.678   3
  -3   8  -8 976.127 127.207   2
  -3  -8  -8 735.347 111.787   2
  -3  -8  -8 891.539 97.6726   3
   3  -8   8 980.380 149.161   3
   3  -8   9 434.125 107.140   3
  -3   8  -9 336.038 79.9519   2
  -3  -8  -9 243.477 63.7159   2
  -3  -8  -9 309.732 59.2762   3
  -3  -8 -10 1394.99 129.849   3
  -3   8 -10 1134.78 148.153   2
   3  -8  10 1228.54 169.072   3
  -3  -8 -10 1010.79 139.376   2
  -3   8 -11 75.0568 49.9190   2
  -3  -8 -11 59.0440 32.5456   2
   3  -8  11 36.7639 46.8219   3
   3  -8  12 198.043 74.3447   3
  -3   8 -12 257.570 75.5588   2
  -3   8 -13 266.345 76.3187   2
   3  -8  13 252.224 83.5284   3
  -3   8 -14 32.7894 44.6355   2
   3  -8  14 117.154 59.6254   3
   3  -8  15 134.701 64.9178   3
  -3   8 -15 57.1767 50.6951   2
   3  -8  16 699.269 144.273   3
  -3   8 -16 502.259 116.548   2
  -3   8 -17 21.1674 49.0538   2
   3  -8  17 29.3688 52.2426   3
   3  -8  18-32.6334 56.5191   3
  -3   8 -18-145.639 69.8958   2
  -3   8 -19 13.6951 38.5409   2
   3  -8  19 21.5125 40.4228   3
  -3   8 -20 0.90724 45.2152   2
  -3   8 -21 0.32117 49.4225   2
  -3  -9  20 46.9688 60.8687   3
   3   9 -19 166.312 75.4025   2
  -3  -9  19 59.2272 70.2525   3
  -3  -9  18 56.1057 66.8541   3
   3   9 -18-66.0941 56.6466   2
   3   9 -17-3.37842 53.4778   2
  -3  -9  17-78.7151 59.0497   3
   3   9 -16-26.6085 38.7263   2
  -3  -9  16 48.1526 56.0633   3
   3   9 -15 68.7646 39.0559   2
  -3  -9  15 32.2427 31.5017   3
  -3  -9  14-10.2647 38.5014   3
   3   9 -14 15.3021 35.7722   2
  -3  -9  13 26.1291 35.4520   3
   3   9 -13 43.2574 31.8461   2
   3   9 -12 138.068 60.0176   2
  -3  -9  12 220.812 66.8722   3
   3   9 -11 39.0123 47.6965   2
  -3  -9  11-20.8448 27.1290   3
   3   9 -10 49.5749 38.1936   2
  -3  -9  10 159.936 59.5023   3
  -3  -9   9 33.6403 38.9554   3
   3   9  -9 71.4210 49.5301   2
  -3  -9   8 195.979 60.1851   3
   3   9  -8 191.469 62.0902   2
   3   9  -7-41.2647 41.8157   2
  -3  -9   7 25.7157 38.3197   3
   3   9  -6 1291.60 156.016   2
  -3  -9   6 1408.99 148.635   3
   3   9  -5 334.248 78.8104   2
  -3  -9   5 401.121 78.9428   3
   3   9  -4 32.5232 27.2235   2
  -3  -9   4 84.7789 39.8617   3
   3   9  -3 94.7518 48.8185   1
   3   9  -3 66.6882 41.4728   2
  -3  -9   3-0.12128 18.6323   3
   3   9  -2 2237.45 180.239   1
  -3  -9   2 2200.79 157.934   3
  -3  -9   2 1958.01 185.717   2
   3   9  -2 2179.03 186.182   2
  -3   9   1 468.076 75.4919   1
   3   9  -1 658.468 100.141   1
  -3  -9   1 646.981 85.3891   3
   3   9  -1 578.377 93.7604   2
  -3   9   1 650.163 52.3034   2
  -3  -9   1 471.681 91.2230   2
  -3  -9   0 1186.77 139.759   2
  -3  -9   0 1409.05 122.406   3
  -3   9   0 1829.27 144.896   1
   3   9   0 1693.91 162.404   1
  -3   9   0 1791.19 99.8277   2
   3   9   0 1892.70 167.091   2
  -3   9  -1 19.1236 20.1283   1
  -3  -9  -1 42.4848 37.4417   2
  -3  -9  -1 11.6153 23.2365   3
   3   9   1-5.92385 18.1462   2
   3   9   1 38.1675 28.9341   1
  -3   9  -1 46.7035 21.2818   2
   3  -9   2 102.006 50.6684   3
  -3   9  -2 38.3981 19.7240   2
   3   9   2 64.3699 37.4179   1
  -3  -9  -2-12.0862 32.7409   2
  -3   9  -2 87.7336 38.6525   1
  -3  -9  -2 33.7812 25.5707   3
   3   9   2 58.9550 30.5960   2
  -3  -9  -3 1617.15 119.664   3
  -3  -9  -3 1288.48 144.355   2
   3   9   3 1608.04 142.802   2
   3   9   3 1482.50 156.675   1
   3  -9   3 1436.03 167.591   3
  -3   9  -3 1687.56 130.132   2
  -3   9  -3 1728.61 135.949   1
   3   9   4 1950.35 156.562   2
  -3  -9  -4 1660.65 163.528   2
   3  -9   4 1462.20 170.720   3
  -3   9  -4 1955.89 147.164   2
   3   9   4 1861.11 182.636   1
  -3  -9  -5 1149.90 110.855   3
  -3  -9  -5 907.595 123.810   2
   3  -9   5 1161.66 151.547   3
   3   9   5 1245.97 124.252   2
   3  -9   6-48.8224 58.3064   3
  -3  -9  -6 30.0802 31.3501   2
   3  -9   7 75.7524 55.0303   3
  -3  -9  -7 31.6913 21.4495   2
  -3   9  -7 30.0744 36.2156   2
  -3  -9  -8 425.156 87.0987   2
   3  -9   8 458.770 107.309   3
  -3   9  -8 427.812 82.2487   2
   3  -9   9 424.060 100.561   3
  -3   9  -9 326.483 76.2007   2
  -3   9 -10 27.6188 23.1739   2
   3  -9  10-17.5929 34.6500   3
  -3   9 -11 155.037 56.1608   2
   3  -9  11 246.779 85.6800   3
  -3   9 -12 585.573 114.845   2
   3  -9  12 587.594 125.927   3
  -3   9 -13-91.3224 66.4998   2
   3  -9  13-78.3986 63.2047   3
  -3   9 -14 199.016 74.5742   2
   3  -9  14 158.703 76.8226   3
   3  -9  15 48.7657 34.8115   3
  -3   9 -15 30.6874 40.3428   2
   3  -9  16 0.63596 28.4560   3
  -3   9 -16-93.6895 55.4756   2
  -3   9 -17-51.7277 48.0434   2
   3  -9  17 154.747 80.6162   3
   3  -9  18-63.5342 57.2775   3
  -3   9 -18 107.489 70.7211   2
  -3   9 -19 149.579 82.6885   2
  -3   9 -20 7.48785 56.6042   2
  -3 -10  18 93.3734 82.1675   3
   3  10 -18 238.808 96.1932   2
   3  10 -17 1.92208 42.3528   2
  -3 -10  17 12.9458 27.5200   3
   3  10 -16-0.30921 32.8299   2
  -3 -10  16-55.2809 50.5592   3
  -3 -10  15-13.1298 44.8797   3
   3  10 -15 157.209 80.7466   2
   3  10 -14-175.118 75.9794   2
  -3 -10  14 117.446 70.6974   3
  -3 -10  13-31.3641 38.0413   3
   3  10 -13-33.5172 39.2122   2
  -3 -10  12 13.0110 39.7143   3
   3  10 -12-0.25955 28.3366   2
  -3 -10  11 97.8938 45.1950   3
   3  10 -11 65.6758 48.0252   2
  -3 -10  10 23.8538 30.8877   3
   3  10 -10-45.2615 47.7877   2
   3  10  -9 67.6454 43.3637   2
  -3 -10   9 121.263 68.0881   3
  -3 -10   8-20.5300 35.4812   3
   3  10  -8 33.0863 43.0562   2
  -3 -10   7 55.5666 39.5685   3
   3  10  -7 51.3012 37.3195   2
   3  10  -6 235.973 78.2517   2
  -3 -10   6 138.379 50.0022   3
   3  10  -5 94.7014 45.5683   2
  -3 -10   5 70.6333 39.5862   3
   3  10  -4 555.283 97.7222   1
   3  10  -4 456.208 91.2135   2
  -3 -10   4 521.171 86.6595   3
   3  10  -3 137.788 46.3675   2
  -3 -10   3 172.315 49.6458   3
   3  10  -3 146.146 47.6759   1
   3  10  -2 369.983 78.1709   1
   3  10  -2 421.105 84.7905   2
  -3 -10   2 279.993 63.5631   3
   3  10  -1-4.05022 38.3159   1
  -3  10   1 105.804 44.1799   1
   3  10  -1 44.2048 23.0106   2
  -3 -10   1 38.8275 26.8538   3
  -3 -10   1 71.8791 26.4470   2
  -3 -10   0 244.512 71.5232   2
   3  10   0 146.210 44.0973   1
  -3  10   0 282.156 61.9544   1
  -3  10   0 333.863 40.3528   2
  -3 -10   0 445.018 69.6774   3
   3  10   0 258.758 69.9845   2
  -3 -10  -1 53.6524 26.3018   3
   3  10   1 95.4193 38.6109   2
  -3  10  -1 22.7866 18.4170   1
  -3  10  -1 56.6318 20.4360   2
   3 -10   1 29.2964 30.5468   3
   3  10   1-31.9732 40.4447   1
  -3 -10  -2 141.019 40.0573   3
   3  10   2 78.9806 38.7216   1
  -3  10  -2 65.5197 25.9117   2
  -3  10  -2 69.1536 32.1712   1
   3  10   2 72.6495 34.7432   2
   3 -10   2 74.5972 45.9146   3
   3  10   3-42.8722 41.7295   1
   3  10   3 9.22808 18.8665   2
  -3 -10  -3 35.0826 23.2258   3
  -3  10  -3-8.87779 19.7849   1
   3 -10   3-34.9293 35.8994   3
  -3  10  -3-14.8777 18.1886   2
   3  10   4 1070.50 120.814   2
  -3  10  -4 1174.78 120.633   1
   3 -10   4 822.386 133.255   3
   3 -10   5-25.4842 47.3953   3
   3  10   5 2.94928 24.0616   2
  -3  10  -5 20.6182 21.9908   1
   3 -10   6 2050.38 219.875   3
  -3  10  -6 2192.23 177.990   2
  -3  10  -7 325.991 70.0136   2
   3 -10   7 303.938 85.8307   3
  -3  10  -8 125.055 43.1482   2
   3 -10   8 134.486 59.9763   3
  -3  10  -9 726.586 114.916   2
   3 -10   9 512.321 118.688   3
  -3  10 -10 69.2088 49.4482   2
   3 -10  10-55.0507 68.0678   3
   3 -10  11 174.222 76.5199   3
  -3  10 -11 70.4218 49.9499   2
   3 -10  12 26.0781 36.9161   3
  -3  10 -12-0.66392 26.2975   2
   3 -10  13 503.900 124.092   3
  -3  10 -13 323.408 89.7606   2
   3 -10  14 24.2032 39.4183   3
  -3  10 -14 45.3989 43.9258   2
   3 -10  15-15.2901 45.4460   3
  -3  10 -15 5.92081 48.4441   2
  -3  10 -16 8.60488 40.5618   2
   3 -10  16-69.7753 76.5551   3
  -3  10 -17 164.268 83.5173   2
  -3  10 -18 0.29491 28.0204   2
  -3  10 -19 54.1296 66.2166   2
   3  11 -16-66.5976 53.2829   2
   3  11 -15 51.3427 23.3648   2
  -3 -11  14 102.700 53.7119   3
   3  11 -14-92.5861 58.5766   2
  -3 -11  13 70.9331 48.7744   3
   3  11 -13 3.70426 48.5448   2
  -3 -11  12 52.8766 33.9588   3
   3  11 -12-54.9170 44.5645   2
   3  11 -11-39.2746 38.0618   2
  -3 -11  11-3.40756 29.4169   3
   3  11 -10-12.9389 20.8737   2
  -3 -11  10 6.42202 37.8789   3
   3  11  -9 49.7609 43.7672   2
  -3 -11   9 17.1681 25.5492   3
   3  11  -8-16.6515 25.9754   2
   3  11  -7 26.3546 35.1273   2
   3  11  -6 20.1281 22.4426   2
   3  11  -6 14.1180 26.2650   1
   3  11  -5 104.265 55.0678   2
   3  11  -5-39.5061 42.4663   1
   3  11  -4-7.38993 21.8881   1
   3  11  -4 3.89879 30.3483   2
   3  11  -3 182.502 58.7192   1
   3  11  -3 126.280 46.4678   2
   3  11  -2 342.701 81.4050   1
   3  11  -2 375.431 84.9702   2
   3  11  -1 111.830 48.0222   2
   3  11  -1 73.8419 39.1704   1
   3 -11   0 109.047 58.0636   3
   3  11   0 104.438 43.7973   2
   3  11   0 117.596 47.8586   1
  -3  11   0 101.348 39.6017   1
   3  11   1 575.733 109.755   1
  -3  11  -1 610.623 96.9706   1
   3 -11   1 654.840 118.650   3
   3  11   1 507.822 92.4938   2
  -3  11  -2 343.027 71.0830   1
   3  11   2 261.620 74.4258   1
   3  11   2 333.275 69.0880   2
   3 -11   2 277.789 83.1940   3
   3 -11   3 199.661 71.5623   3
   3  11   3 303.282 67.2378   2
   3  11   3 327.366 85.2429   1
  -3  11  -3 402.523 78.8530   1
  -3  11  -4-49.7888 37.2848   1
   3  11   4-20.5407 26.2291   2
   3 -11   4-28.9270 37.8757   3
  -3  11  -5 101.801 44.0530   1
   3 -11   5 186.858 75.3084   3
   3 -11   6 345.265 99.1810   3
  -3  11  -6 460.254 84.0036   1
   3 -11   7 306.506 99.9482   3
   3 -11   8 95.9524 54.4375   3
   3 -11   9-16.9786 31.9607   3
   3 -11  10 1.68456 40.4665   3
   3 -11  11-23.1102 50.7129   3
   3 -11  12 93.9612 62.0114   3
   3 -11  13-28.7952 40.2886   3
   3  12  -7 23.6779 52.6836   1
   3  12  -6 10.1939 27.1807   1
   3  12  -5 25.9740 25.6485   1
   3  12  -4-14.1429 24.3433   1
   3  12  -3 124.362 53.4829   1
   3  12  -2 81.6941 42.3700   1
   3  12  -1 78.0738 54.4860   1
   3 -12  -1-13.5371 24.6111   3
   3  12   0 19.9761 24.6193   1
   3 -12   0 43.3376 42.5314   3
   3  12   1 37.2517 44.0256   1
   3 -12   1 21.4493 24.8694   3
   3  12   2-7.04722 32.5339   1
   3 -12   2-44.5080 39.9365   3
   3 -12   3 130.102 45.6259   3
   3 -12   4 35.5845 41.0431   3
   3 -12   5 33.9185 38.0620   3
   3 -12   6 83.6300 60.6618   3
   3 -12   7-92.3209 56.0864   3
   3 -12   8-81.5967 55.0501   3
   3 -12   9 48.7536 48.9701   3
   3 -12  10 54.8879 37.9211   3
   3 -12  11 33.4892 50.7577   3
   3 -12  12 29.7292 31.5720   3
   3  13  -7-15.7722 42.4093   1
   3  13  -6 40.5112 33.6147   1
   3  13  -5 39.9009 40.7086   1
   3  13  -4-7.38055 30.8441   1
   3  13  -3 79.1152 62.1844   1
   3  13  -2 178.946 78.1061   1
   3  13  -1 95.2737 57.2498   1
   3  13   0 1.83033 26.1325   1
   3  13   1-70.8108 51.0489   1
  -4   0  25-18.6907 51.6301   3
  -4   0  24-35.0742 50.4602   3
  -4   0  23 14.2030 36.9966   3
  -4   0  22 953.228 186.773   3
  -4   0  21 13.4340 45.7765   3
  -4   0  20 2150.76 263.816   3
  -4   0  19 221.394 93.7212   3
  -4   0  18 5464.56 395.249   3
  -4   0  17-63.6049 59.5272   3
  -4   0  16 2427.99 245.433   3
  -4   0  15-53.8443 50.3986   3
   4   0 -15 12.3254 26.4745   3
   4   0 -14 169.232 53.6570   3
  -4   0  14 76.1911 51.3460   3
   4   0 -13-1.10929 28.6058   3
   4   0 -12 100.667 38.2125   3
   4   0 -11-36.5668 33.8431   3
   4   0 -10 405.377 74.3148   3
   4   0  -9 3.55892 23.2445   3
   4   0  -8 8108.43 297.162   3
   4   0  -7 32.4137 24.1940   3
   4   0  -7 3.58551 22.0157   2
   4   0  -6 6213.41 241.885   3
   4   0  -6 6846.19 224.166   2
   4   0  -5-2.66570 21.0510   2
   4   0  -5 23.1189 23.8089   3
   4   0  -4 851.691 76.1335   2
  -4   0   4 863.495 71.4189   2
   4   0  -4 822.004 78.0521   3
  -4   0   3-5.58436 21.2461   2
   4   0  -3-18.6223 21.7714   2
  -4   0   2 35250.5 394.319   2
   4   0  -2 34965.9 391.999   2
  -4   0   1-1.80832 12.1979   2
   4   0  -1 24.3594 18.3639   2
   4   0   0 458.707 43.6007   2
  -4   0   0 492.129 44.6394   2
   4   0   1 4.75047 9.91490   1
  -4   0  -1-3.08803 10.2407   1
   4   0   1-3.96951 12.3259   2
  -4   0  -1-9.60244 12.0206   2
   4   0   2 57.9564 18.3545   2
  -4   0  -2 48.9214 14.0604   1
  -4   0  -2 37.9730 15.2779   2
  -4   0  -3 5.42558 10.2609   2
   4   0   3-3.55778 18.5521   3
  -4   0  -4 294204. 1280.05   2
   4   0   4 286711. 1311.51   3
   4   0   5-29.9953 23.5731   3
  -4   0  -5 0.06597 14.9342   3
   4   0   6 1395.51 104.903   3
  -4   0  -6 1468.63 107.251   3
   4   0   7-14.6348 20.7639   3
  -4   0  -7 33.6675 27.4370   3
   4   0   8 3434.62 181.992   3
  -4   0  -8 3469.93 192.323   3
   4   0   9 16.9757 22.0421   3
  -4   0  -9 6.78535 20.3267   3
  -4   0 -10 5964.85 276.284   3
  -4   0 -11-2.55066 21.4619   3
   4   0  12 6956.98 319.666   3
  -4   0 -12 7390.40 335.787   3
   4   0  13 24.1682 25.5534   3
  -4   0 -13-28.2826 37.3638   3
   4   0  14 506.904 97.1004   3
  -4   0 -14 647.659 109.206   3
  -4   0 -15-9.85046 32.0930   3
   4   0  15-1.48899 30.8154   3
   4   0  16 188.160 65.9976   3
   4   0  17 59.3711 58.2252   3
   4   0  18-83.6581 58.1312   3
   4   0  19 33.3881 43.8553   3
   4   0  20-8.53878 42.7078   3
   4   0  21-36.4510 30.6074   3
   4   0  22 641.182 148.897   3
   4   0  23 21.1034 45.3945   3
   4   0  24 222.585 101.539   3
   4   0  25-60.5257 58.9746   3
  -4  -1  25 206.644 109.384   3
  -4  -1  24-227.131 104.327   3
  -4  -1  23 48.1581 62.1673   3
  -4  -1  22-3.55723 35.4259   3
  -4   1  22-58.1381 71.0926   3
  -4  -1  21 16.9625 41.0658   3
  -4   1  21 89.6155 61.3315   3
  -4  -1  20-0.62159 42.9994   3
  -4   1  20 41.2767 37.2996   3
  -4  -1  19-40.3815 58.3592   3
  -4   1  19-19.9067 55.6677   3
  -4   1  18 2472.70 273.266   3
  -4  -1  18 2597.11 272.458   3
  -4   1  17-1.04945 35.8419   3
  -4  -1  17 35.4324 47.6023   3
  -4  -1  16-10.7200 47.2702   3
  -4   1  16-21.4852 41.6836   3
  -4  -1  15 1368.91 178.117   3
  -4   1  15 1318.05 177.163   3
   4  -1 -15 1576.04 174.439   3
   4   1 -14 21.7166 24.5843   3
  -4  -1  14 113.331 55.7438   3
  -4   1  14 82.6609 53.4659   3
   4  -1 -14 29.6253 24.0676   3
   4   1 -13 2957.11 220.233   3
   4  -1 -13 2959.65 225.722   3
  -4  -1  13 2946.57 236.556   3
  -4   1  13 2759.02 240.512   3
   4   1 -12 3459.73 227.009   3
   4  -1 -12 3596.00 239.455   3
   4  -1 -11 193.857 58.4526   3
   4   1 -11 183.133 51.5031   3
   4  -1 -10 3046.74 204.600   3
   4   1 -10 2681.00 184.063   3
   4  -1  -9 924.059 111.119   3
   4   1  -9 855.559 99.0894   3
  -4  -1   8 442.577 74.2522   3
   4  -1  -8 525.397 79.9945   3
   4   1  -8 395.319 65.6840   3
   4   1  -7 2105.74 144.248   2
   4   1  -7 1969.00 137.284   3
  -4  -1   7 2290.02 157.523   3
   4  -1  -7 2304.59 161.600   3
   4  -1  -6 2206.74 154.924   3
   4   1  -6 2138.84 134.720   3
  -4  -1   6 2291.39 144.138   3
  -4  -1   5 1176.32 98.5033   3
  -4  -1   5 1096.70 91.9299   2
   4  -1  -5 1240.57 81.3046   2
   4   1  -5 1144.90 91.1913   3
   4  -1  -4 2290.79 105.263   2
  -4  -1   4 2433.81 132.115   2
  -4  -1   4 2413.58 130.976   3
   4   1  -4 2550.49 124.247   3
  -4  -1   3 2135.91 118.503   2
   4  -1  -3 2312.42 92.5991   2
   4   1  -3 2233.74 107.617   3
  -4   1   3 2214.32 92.2511   2
   4   1  -2 5346.57 154.566   3
  -4   1   2 5479.72 132.438   2
   4  -1  -2 5416.31 129.757   2
  -4  -1   2 5514.59 180.893   2
  -4  -1   1 1647.37 95.7997   2
  -4   1   1 1541.46 67.2875   2
   4  -1  -1 1709.98 70.0500   2
  -4  -1   0 35.7157 19.5559   2
  -4   1   0 15.9093 10.8635   2
   4  -1   0 17.0566 10.7212   2
  -4   1  -1 278774. 959.240   2
   4   1   1 283989. 964.572   1
  -4  -1  -1 283242. 1249.87   2
  -4  -1  -2 164561. 963.421   2
   4   1   2 160113. 675.836   3
   4   1   2 159322. 808.905   1
  -4  -1  -2 158305. 765.638   1
  -4   1  -2 158787. 774.556   2
   4   1   3 152809. 744.756   3
  -4  -1  -3 152829. 830.804   1
  -4  -1  -3 152419. 960.876   2
  -4  -1  -4 17524.2 309.454   1
   4   1   4 17707.1 284.318   3
  -4  -1  -4 17798.1 286.652   3
  -4  -1  -4 17474.7 333.310   2
   4  -1   4 17842.0 356.422   3
  -4  -1  -5 5547.87 195.509   2
   4  -1   5 5462.60 210.620   3
  -4  -1  -5 5730.58 180.280   3
   4   1   5 5708.28 175.274   3
  -4  -1  -6 4826.58 192.217   2
   4  -1   6 4596.00 205.830   3
  -4   1  -6 4843.03 209.662   3
   4   1   6 4532.14 172.193   3
  -4  -1  -6 4735.61 179.859   3
  -4   1  -7 1296.67 115.832   3
  -4  -1  -7 1283.01 102.765   3
   4  -1   7 1412.18 117.191   3
   4   1   7 1474.99 106.308   3
  -4  -1  -7 1440.54 110.396   2
  -4  -1  -8 484.244 68.6966   3
   4   1   8 455.788 68.1978   3
  -4   1  -8 497.935 77.3411   3
   4  -1   8 528.065 77.6978   3
  -4   1  -9 3985.46 230.447   3
   4   1   9 4209.83 208.398   3
  -4  -1  -9 4381.61 213.733   3
  -4  -1 -10 519.155 79.8439   3
  -4   1 -10 474.257 81.6074   3
  -4  -1 -11 461.188 78.2130   3
  -4   1 -11 549.896 91.9331   3
   4  -1  11 563.656 88.5628   3
   4  -1  12 165.056 51.4651   3
  -4   1 -12 258.561 70.3229   3
  -4  -1 -12 225.870 56.5593   3
   4  -1  13 94.4326 46.2371   3
  -4  -1 -13 58.1206 38.5740   3
   4   1  13 21.3830 28.8280   3
  -4   1 -13 128.696 55.9398   3
  -4  -1 -14 927.626 123.917   3
  -4   1 -14 806.906 123.081   3
   4   1  14 863.211 123.843   3
   4  -1  14 895.672 127.889   3
  -4  -1 -15 22.7656 30.5310   3
   4   1  15 45.2885 27.0749   3
   4  -1  15-35.6029 37.1581   3
   4   1  16 239.428 69.2555   3
   4  -1  16 290.672 84.0780   3
   4  -1  17 467.079 111.641   3
   4   1  17 594.606 117.750   3
   4   1  18 733.905 137.668   3
   4  -1  18 738.525 137.792   3
   4   1  19 218.351 83.5155   3
   4  -1  19 51.8424 50.3871   3
   4   1  20 254.066 83.8836   3
   4  -1  20 197.554 76.4500   3
   4  -1  21 51.9970 49.2854   3
   4   1  21 44.0138 42.9631   3
   4  -1  22 188.100 74.6793   3
   4   1  22 133.459 68.9055   3
   4   1  23 45.2348 61.5575   3
   4  -1  23 16.2571 42.0578   3
   4  -1  24 63.1043 77.6665   3
   4   1  24 9.71735 51.7033   3
   4   1  25 103.158 85.9256   3
   4  -1  25-31.4696 68.5591   3
   4   2 -25-48.0169 59.3602   2
  -4  -2  25-33.6162 52.0842   3
  -4  -2  24 4.04228 47.6182   3
   4   2 -24-3.78312 41.5647   2
  -4  -2  23 142.731 81.8688   3
  -4  -2  22 80.4213 53.5593   3
  -4  -2  21 234.520 90.0126   3
  -4  -2  20 24.8251 42.9545   3
  -4  -2  19 591.322 125.089   3
  -4  -2  18 2043.83 233.111   3
  -4  -2  17 840.429 153.906   3
  -4  -2  16-72.1572 78.5495   3
  -4  -2  15 11.3271 29.7388   3
   4   2 -14 4772.51 291.664   3
  -4  -2  14 4711.09 307.187   3
   4  -2 -14 5073.89 312.484   3
  -4  -2  13 881.705 128.709   3
   4   2 -13 864.278 121.185   3
   4  -2 -13 826.699 121.075   3
   4   2 -12 3118.38 219.440   3
   4  -2 -12 3014.27 227.385   3
  -4  -2  12 3073.04 230.361   3
  -4  -2  11-28.2995 40.2008   3
   4  -2 -11 28.5823 33.9817   3
   4   2 -11 1.89496 30.0535   3
   4  -2 -10 22805.3 587.604   3
   4   2 -10 22031.8 530.954   3
  -4  -2  10 22045.0 561.694   3
   4  -2  -9 1066.82 126.376   3
   4   2  -9 1072.79 112.835   3
  -4  -2   9 1194.75 125.738   3
   4  -2  -8 3602.11 222.034   3
   4   2  -8 3636.17 194.559   3
  -4  -2   8 3692.17 207.079   3
   4   2  -7 7620.56 263.155   3
   4  -2  -7 7669.62 315.667   3
  -4  -2   7 7362.04 273.985   3
   4   2  -6 20587.6 406.717   3
  -4  -2   6 20866.4 429.329   3
  -4  -2   5 693.889 81.5619   2
  -4  -2   5 766.963 77.0508   3
   4   2  -5 665.456 66.9101   3
   4  -2  -4 538.854 43.4007   2
  -4  -2   4 517.313 66.5400   2
  -4  -2   4 517.417 57.3416   3
   4   2  -4 537.424 55.6145   3
   4  -2  -3 5239.51 112.639   2
  -4  -2   3 4664.08 193.312   2
  -4  -2   3 4708.38 156.784   3
   4   2  -3 4849.22 147.350   3
  -4   2   2 3679.74 79.5699   2
   4  -2  -2 3619.47 77.3951   2
  -4  -2   2 3432.83 158.799   2
   4   2  -2 3467.64 109.671   3
  -4  -2   2 3559.09 119.902   3
  -4  -2   1 39973.7 515.295   2
   4   2  -1 40394.5 308.828   3
  -4  -2   0 3622.11 155.956   2
  -4   2   0 3291.83 81.0756   2
   4   2   1 24971.2 393.159   2
  -4   2  -1 23910.4 247.704   2
  -4  -2  -1 25790.4 415.840   2
   4   2   1 26013.5 336.140   1
   4   2   2 9354.14 242.707   2
   4   2   2 9493.28 219.644   1
  -4  -2  -2 9488.22 254.960   2
  -4  -2  -3 21499.6 230.573   3
   4   2   3 21780.2 376.858   2
  -4  -2  -3 22266.7 395.000   2
   4   2   3 22278.7 360.947   1
   4   2   3 21760.2 230.215   3
  -4  -2  -4 722.317 72.4892   2
   4   2   4 635.205 66.7300   2
  -4  -2  -4 673.843 49.8317   3
   4   2   4 693.264 49.9027   3
  -4  -2  -5 8001.21 250.995   2
  -4  -2  -5 7449.42 192.773   3
   4   2   5 8201.45 241.921   2
   4   2   5 8333.10 199.633   3
  -4  -2  -6 1823.66 104.247   3
  -4  -2  -6 1896.18 125.227   2
   4   2   6 1937.75 110.146   3
  -4  -2  -7 219.791 46.0143   2
  -4  -2  -7 231.724 40.9268   3
   4   2   7 300.670 51.0922   3
   4   2   8 2368.11 144.440   3
  -4  -2  -8 2438.01 155.482   2
  -4  -2  -8 2192.24 136.235   3
  -4   2  -8 2203.51 168.063   3
  -4  -2  -9 6.48688 11.0352   2
  -4  -2  -9-11.8625 17.6993   3
   4   2   9 14.3570 19.3896   3
  -4   2  -9 37.8767 32.5880   3
  -4  -2 -10-1.12486 12.7440   2
   4   2  10 11.6763 19.5344   3
  -4  -2 -10 29.3908 23.2779   3
  -4   2 -10-22.7756 19.9917   3
  -4  -2 -11 116.305 42.1316   2
  -4   2 -11 202.232 59.2872   3
  -4  -2 -11 195.305 51.5718   3
  -4   2 -12 900.302 124.097   3
  -4  -2 -12 857.740 107.487   3
   4  -2  12 933.789 125.243   3
  -4   2 -13 44.7999 21.4351   3
  -4  -2 -13 37.2926 31.2080   3
   4   2  13 21.1220 39.6856   3
   4  -2  13-0.84806 39.4881   3
  -4  -2 -14 5811.16 308.475   3
   4  -2  14 5828.12 331.579   3
   4   2  14 5844.68 321.361   3
  -4  -2 -15 778.688 116.284   3
   4  -2  15 841.730 134.863   3
   4   2  15 881.748 130.783   3
  -4  -2 -16 2101.01 201.558   3
   4   2  16 2160.83 213.308   3
   4  -2  16 2431.16 230.233   3
   4   2  17 221.720 72.1829   3
   4  -2  17 274.336 82.0153   3
   4   2  18-50.4939 53.6492   3
   4  -2  18-2.71329 39.4620   3
   4   2  19-14.7508 35.2900   3
   4  -2  19 17.3339 36.7113   3
   4  -2  20 1709.73 220.638   3
   4   2  20 1544.19 214.272   3
   4   2  21 22.7614 39.3480   3
   4  -2  21 56.6206 49.7334   3
   4  -2  22 44.4643 37.1802   3
   4   2  22 159.492 81.8281   3
   4   2  23 86.2846 65.9776   3
   4  -2  23 115.061 64.5833   3
   4  -2  24 163.677 76.1725   3
   4   2  24 101.536 78.7072   3
   4   2  25 86.3167 61.6928   3
   4   2  26 102.750 71.3578   3
   4   3 -24 3.39466 49.7042   2
  -4  -3  24 72.3137 65.9497   3
  -4  -3  23-75.0266 64.1386   3
   4   3 -23-293.301 104.033   2
  -4  -3  22 335.967 113.445   3
   4   3 -22 145.604 76.7935   2
   4   3 -21 10.9187 30.2598   2
  -4  -3  21 62.7968 62.7952   3
  -4  -3  20-68.6007 70.2302   3
   4   3 -20-20.6221 56.5907   2
  -4  -3  19 161.558 75.9701   3
   4   3 -19 152.585 70.1173   2
   4   3 -18 76.5081 39.1485   2
  -4  -3  18 23.2717 41.8262   3
  -4  -3  17 63.6216 50.6604   3
   4   3 -17 38.8754 51.6123   2
   4   3 -16 4447.69 316.002   2
  -4  -3  16 4088.13 311.441   3
  -4  -3  15 633.229 118.464   3
   4   3 -15 781.783 134.495   2
  -4  -3  14 799.881 134.591   3
   4   3 -14 782.762 127.295   2
   4   3 -14 915.186 129.465   3
   4  -3 -14 945.442 136.421   3
   4   3 -13 583.875 107.260   2
  -4  -3  13 592.976 109.788   3
   4  -3 -13 651.550 110.324   3
   4   3 -13 657.410 107.816   3
   4  -3 -12 43.9753 24.5697   3
   4   3 -12 92.5543 48.6939   2
   4   3 -12 26.1323 28.8395   3
  -4  -3  12 24.2813 43.2971   3
   4   3 -11 935.108 118.722   3
  -4  -3  11 877.328 118.054   3
   4  -3 -11 1073.36 136.858   3
   4   3 -10-39.1805 38.3802   3
   4  -3 -10-2.23768 35.9430   3
  -4  -3  10-17.4294 35.9037   3
  -4  -3   9 57.8314 35.6997   3
   4  -3  -9 63.0410 36.8378   3
   4   3  -9 56.0201 31.5303   3
   4  -3  -8 452.937 85.8431   3
  -4  -3   8 412.158 67.8763   3
   4   3  -8 432.949 68.6848   3
  -4  -3   7 876.236 95.0275   3
   4   3  -7 894.132 92.6633   3
   4   3  -6 3246.38 165.999   3
  -4  -3   6 3393.09 173.410   3
  -4  -3   5 102.640 28.4724   3
   4   3  -5 95.5546 28.7651   3
  -4  -3   5 123.315 40.2638   2
  -4  -3   4 1112.91 106.262   2
  -4  -3   4 1271.63 88.8232   3
   4   3  -4 1098.99 103.234   2
   4   3  -4 1144.14 83.2032   3
   4  -3  -4 1155.22 53.4656   2
   4   3  -3 6537.50 237.659   2
  -4  -3   3 6897.83 255.662   2
  -4  -3   3 7174.15 189.909   3
   4   3  -3 6554.49 176.053   3
   4  -3  -3 6679.89 144.563   1
   4   3  -2 8733.01 267.279   2
   4   3  -2 9038.31 182.133   3
  -4  -3   2 9147.08 284.882   2
   4  -3  -2 8482.56 132.390   1
  -4  -3   2 9050.59 185.841   3
  -4  -3   1 7391.12 137.214   3
  -4  -3   1 7202.52 247.616   2
   4   3  -1 7494.30 133.648   3
   4   3  -1 7262.38 237.686   2
  -4  -3   0 2919.35 153.717   2
   4   3   0 3049.02 153.380   2
  -4   3   0 2915.82 67.5936   1
   4   3   1 2962.58 130.046   1
  -4  -3  -1 2875.28 151.982   2
   4   3   1 2755.35 141.639   2
  -4  -3  -2 5818.33 219.322   2
   4   3   2 6070.75 208.984   2
   4   3   2 5651.13 186.282   1
   4   3   3 519.973 63.5345   2
   4   3   3 443.481 60.4241   1
  -4  -3  -3 482.935 64.6892   2
  -4  -3  -4 5491.07 217.897   2
   4   3   4 5146.73 197.058   2
  -4  -3  -4 5054.73 121.887   3
   4   3   4 5239.18 204.839   1
  -4  -3  -5 375.340 39.7149   3
   4   3   5 270.766 39.8333   3
  -4  -3  -5 350.174 56.1732   2
   4   3   5 350.436 56.1084   2
  -4  -3  -6 323.869 56.3482   2
  -4  -3  -6 313.083 41.5683   3
   4   3   6 213.365 40.6914   3
  -4  -3  -7 6212.32 201.519   3
   4   3   7 6574.20 224.955   3
  -4  -3  -7 6308.21 251.690   2
  -4  -3  -8 3925.01 173.085   3
   4   3   8 4139.51 193.934   3
  -4  -3  -8 4451.61 217.005   2
  -4  -3  -9 243.661 52.4285   2
  -4  -3  -9 247.651 47.9103   3
   4   3   9 253.147 56.3718   3
  -4  -3 -10 15.5718 14.2087   3
   4   3  10-36.3131 28.1374   3
  -4  -3 -10 19.9076 16.8686   2
  -4  -3 -11 2257.88 163.175   3
  -4  -3 -11 2298.90 173.819   2
  -4   3 -11 2369.59 202.644   3
  -4  -3 -12 154.722 47.3373   2
  -4  -3 -12 121.156 41.2309   3
  -4   3 -12 103.561 38.8048   3
   4  -3  12 90.9916 39.0451   3
   4   3  13-3.25925 33.1299   3
  -4  -3 -13 1.38733 22.6421   3
   4  -3  13-40.1421 36.9237   3
   4   3  14 294.629 78.7214   3
   4  -3  14 270.239 75.4895   3
  -4  -3 -14 312.265 72.6282   3
   4   3  15 146.874 63.8160   3
   4  -3  15 166.882 62.6572   3
  -4  -3 -15 176.001 57.9344   3
   4   3  16 168.651 70.7654   3
  -4  -3 -16 93.2814 40.4998   3
   4  -3  16 17.5429 34.1003   3
   4  -3  17 1798.43 211.660   3
   4   3  17 1612.37 195.557   3
   4  -3  18 540.507 116.521   3
   4   3  18 543.756 124.178   3
   4  -3  19 1779.84 224.488   3
   4   3  19 1812.53 227.129   3
   4   3  20 1308.93 200.224   3
   4  -3  20 1283.07 197.406   3
   4   3  21 261.876 101.688   3
   4  -3  21 264.795 92.2541   3
   4   3  22 25.0339 45.0759   3
   4  -3  22 9.09201 41.4102   3
   4   3  23 62.7909 59.7513   3
   4  -3  23 11.5362 53.9181   3
   4   3  24 32.5300 44.9681   3
   4  -3  24-8.02086 42.4969   3
   4   3  25-126.391 80.2088   3
   4   3  26 17.0797 52.4421   3
  -4  -4  24 72.5845 73.2882   3
   4   4 -24 102.531 53.1033   2
   4   4 -23-86.5173 66.5054   2
  -4  -4  23-86.1087 72.2787   3
  -4  -4  22-103.187 75.3876   3
   4   4 -22 36.8360 50.7304   2
  -4  -4  21-28.6013 50.5162   3
   4   4 -21-35.9720 42.6828   2
  -4  -4  20 182.433 81.7923   3
   4   4 -20 225.732 84.8750   2
   4   4 -19 9.78927 40.7178   2
  -4  -4  19-20.7175 34.6813   3
   4   4 -18 193.088 77.8905   2
  -4  -4  18 216.751 92.7671   3
  -4  -4  17 43.7803 42.6448   3
   4   4 -17-25.9849 59.3642   2
  -4  -4  16 1116.44 165.739   3
   4   4 -16 1075.93 159.410   2
   4   4 -15 44.1310 45.3551   2
  -4  -4  15 58.2913 52.6590   3
   4   4 -14 197.311 64.4271   2
   4  -4 -14 120.231 52.4205   3
  -4  -4  14 272.104 85.5942   3
  -4  -4  13 293.941 77.7650   3
   4  -4 -13 216.924 69.3939   3
   4   4 -13 217.447 78.9541   2
   4   4 -13 180.715 57.8052   3
  -4  -4  12 327.675 79.7991   3
   4   4 -12 322.688 74.3464   3
   4   4 -12 392.027 93.8551   2
   4  -4 -12 352.833 84.0124   3
   4  -4 -11 2388.49 210.098   3
  -4  -4  11 2067.21 184.335   3
   4   4 -11 2322.77 189.608   3
   4   4 -11 2362.63 205.073   2
   4   4 -10 136.186 60.7029   2
   4  -4 -10 64.3461 39.4178   3
   4   4 -10 84.0014 38.8187   3
  -4  -4  10 123.048 46.9768   3
   4  -4  -9 225.018 56.2161   3
  -4  -4   9 221.653 61.3564   3
   4   4  -9 280.174 63.1182   3
   4   4  -9 186.809 51.9270   2
  -4  -4   8 220.105 55.3692   3
   4   4  -8 327.081 63.6699   3
   4   4  -7 16.9764 22.8572   3
  -4  -4   7 5.73965 22.8396   3
  -4  -4   6 13935.9 416.586   2
  -4  -4   6 13338.2 353.235   3
   4   4  -6 14102.3 363.893   3
   4  -4  -5 3793.85 146.071   1
  -4  -4   5 4242.19 223.685   2
   4   4  -5 4210.79 183.570   3
   4  -4  -5 4366.74 105.576   2
  -4  -4   5 4202.42 182.181   3
   4   4  -4 6933.41 218.943   3
  -4  -4   4 7668.98 293.491   2
   4   4  -4 7239.60 278.332   2
   4  -4  -4 7225.17 181.610   1
  -4  -4   4 7539.49 224.557   3
   4  -4  -3 535.841 44.2388   1
   4   4  -3 532.270 54.8055   3
  -4  -4   3 653.571 85.0934   2
  -4  -4   3 598.675 58.1601   3
   4   4  -3 561.392 77.0383   2
   4   4  -2 3514.49 182.495   2
  -4  -4   2 3808.40 128.111   3
  -4  -4   2 3603.43 194.815   2
  -4  -4   1 3762.10 109.655   3
  -4  -4   1 3580.52 188.832   2
   4   4  -1 3543.16 180.509   2
  -4   4   1 3547.69 111.978   1
  -4  -4   0 5041.53 219.794   2
   4   4   0 5298.46 214.440   2
  -4  -4   0 5199.15 104.644   3
  -4   4   0 4760.51 119.676   1
  -4   4  -1 26.8336 12.7869   2
   4   4   1 46.7567 31.8902   2
   4   4   1 2.52166 25.7381   1
  -4  -4  -1 32.1947 21.8015   2
   4   4   2 3162.78 162.366   2
  -4  -4  -2 3057.66 171.343   2
   4   4   2 3230.79 155.442   1
   4   4   3 841.259 83.2236   2
   4   4   3 805.219 82.3161   1
  -4  -4  -3 753.368 92.3659   2
  -4  -4  -4 2850.72 170.265   2
   4   4   4 2758.21 151.657   2
  -4  -4  -4 2623.70 86.8535   3
   4   4   4 2853.68 159.483   1
  -4  -4  -5 656.535 82.9380   2
   4   4   5 801.577 82.7335   2
  -4  -4  -5 657.018 51.3521   3
  -4  -4  -6 4742.09 224.559   2
  -4  -4  -6 4691.10 153.463   3
  -4  -4  -7 182.389 35.8028   3
  -4  -4  -7 192.770 46.7641   2
  -4  -4  -8 3354.55 199.290   2
  -4  -4  -8 3217.15 153.726   3
  -4  -4  -9 2229.69 138.603   3
  -4  -4  -9 2290.34 166.334   1
  -4  -4  -9 2332.57 168.468   2
   4  -4   9 2230.54 189.955   3
   4  -4  10 248.224 64.6600   3
  -4  -4 -10 197.996 49.4558   2
  -4  -4 -10 216.114 50.7220   1
  -4  -4 -10 222.714 47.2896   3
  -4  -4 -11 87.9502 39.9499   1
   4   4  11 21.0802 20.6331   3
  -4  -4 -11 49.1198 19.7264   2
  -4  -4 -11 49.9905 27.1487   3
   4  -4  11 96.5600 53.5997   3
   4  -4  12 161.896 53.5621   3
  -4  -4 -12 129.098 41.5077   3
  -4  -4 -12 143.349 47.6248   2
   4  -4  13 71.9765 43.9759   3
  -4  -4 -13 14.1969 26.3373   3
  -4  -4 -13 58.3506 31.0509   2
   4   4  14 54.3646 36.6208   3
  -4  -4 -14 44.5283 33.5072   3
   4  -4  14 68.3844 42.6687   3
   4   4  15 185.232 64.6273   3
   4  -4  15 124.591 63.9857   3
  -4  -4 -15 221.463 63.3770   3
   4   4  16 77.9904 42.5286   3
  -4  -4 -16 97.8912 48.2929   3
   4  -4  16 19.7851 36.6203   3
   4   4  17 10.6494 34.6645   3
   4  -4  17-68.2005 60.6458   3
   4   4  18 186.661 76.6892   3
   4  -4  18 225.683 81.4205   3
   4  -4  19 43.5409 52.4677   3
   4   4  19 3.67058 39.5188   3
   4   4  20 46.4299 31.7233   3
   4  -4  20 14.1990 53.3728   3
   4   4  21 233.183 95.2229   3
   4  -4  21 351.664 110.371   3
   4  -4  22 106.575 56.9312   3
   4  -4  23 220.415 86.0491   3
   4   5 -23 7.84951 78.2400   2
  -4  -5  23 269.804 108.817   3
  -4  -5  22-29.8853 66.9351   3
   4   5 -22 84.8572 76.1761   2
   4   5 -21 96.2330 69.0704   2
  -4  -5  21-34.8139 59.4226   3
   4   5 -20 133.419 82.1036   2
  -4  -5  20 195.437 93.2088   3
  -4  -5  19-38.9370 55.7948   3
   4   5 -19 56.0177 61.0730   2
  -4  -5  18 242.680 88.8707   3
   4   5 -18 133.279 65.2015   2
  -4  -5  17-65.4485 39.5382   3
   4   5 -17 74.2188 64.4122   2
  -4  -5  16 157.821 69.6090   3
   4   5 -16 122.806 57.2962   2
   4   5 -15-14.0943 44.5374   2
  -4  -5  15 67.1618 58.5641   3
   4   5 -14 7487.55 420.126   2
  -4  -5  14 7407.53 402.790   3
  -4  -5  13 461.779 100.549   3
   4  -5 -13 369.379 92.5425   3
   4   5 -13 452.730 96.8477   3
   4   5 -13 515.935 116.514   2
   4   5 -12 11833.5 492.340   2
   4   5 -12 12527.0 482.126   3
  -4  -5  12 11663.3 472.872   3
   4  -5 -12 12421.4 513.231   3
   4   5 -11 326.416 89.3561   2
   4  -5 -11 253.379 78.0489   3
   4   5 -11 281.288 69.1761   3
  -4  -5  11 216.449 61.5094   3
   4  -5 -10 240.683 71.0581   3
   4   5 -10 529.342 102.506   2
   4   5 -10 314.548 74.4167   3
  -4  -5  10 310.147 68.7556   3
   4  -5 -10 276.819 44.6695   2
  -4  -5   9 118.171 53.7093   3
   4  -5  -9 73.7372 21.3592   2
   4   5  -9 82.3406 52.3183   2
   4   5  -9 43.8296 23.2818   3
   4   5  -8 417.206 85.0998   2
   4  -5  -8 406.415 61.3574   1
  -4  -5   8 355.427 68.3133   3
   4  -5  -8 464.875 49.1086   2
   4   5  -8 364.603 67.7152   3
   4   5  -7 454.904 82.7443   2
   4  -5  -7 584.748 50.9539   2
   4   5  -7 575.093 81.8936   3
   4  -5  -7 443.864 60.4466   1
  -4  -5   7 490.963 74.8263   3
  -4  -5   6 6.15063 20.1754   2
   4   5  -6-1.67342 16.8433   3
   4  -5  -6 5.82393 8.57314   2
   4  -5  -6-5.38193 11.6160   1
  -4  -5   6-15.8508 23.1795   3
  -4  -5   5 1490.25 141.927   2
   4   5  -5 1339.99 109.045   3
  -4  -5   5 1365.13 108.346   3
   4  -5  -5 1377.25 59.7348   2
   4  -5  -5 1218.59 84.1990   1
   4  -5  -4 7598.03 196.874   1
  -4  -5   4 7171.27 306.983   2
  -4  -5   4 6832.03 227.728   3
  -4  -5   3 363.977 67.4995   2
  -4  -5   3 304.223 45.6318   3
   4   5  -2 52.5620 26.7856   2
  -4  -5   2 54.5655 29.1605   2
  -4  -5   2 56.4623 23.1891   3
  -4  -5   1 14106.8 405.828   2
  -4   5   1 13931.1 257.268   1
  -4  -5   1 14273.7 247.194   3
   4   5  -1 14139.4 383.986   2
  -4   5   0 382.031 29.5967   2
   4   5   0 385.627 63.9692   2
  -4  -5   0 424.929 38.6366   3
  -4   5   0 425.515 42.9054   1
   4   5   0 569.467 70.9174   1
  -4  -5   0 415.618 70.3656   2
  -4   5  -1 2164.36 89.1191   2
  -4  -5  -1 2161.33 78.7740   3
  -4  -5  -1 2132.55 154.252   2
   4   5   1 2162.99 133.104   1
   4   5   1 2261.69 148.930   2
  -4  -5  -2 451.675 33.4649   3
   4   5   2 477.696 67.5177   1
  -4   5  -2 444.516 49.2758   2
  -4  -5  -2 393.847 65.0050   2
   4   5   2 483.387 68.7686   2
  -4   5  -3 27274.4 421.866   2
  -4  -5  -3 27736.6 297.718   3
   4   5   3 25859.1 501.456   2
  -4  -5  -3 27473.1 557.219   2
   4   5   3 26855.4 502.852   1
  -4  -5  -4 118.625 21.8750   3
  -4  -5  -4 124.121 40.8160   2
  -4   5  -4 126.143 34.2534   2
   4   5   4 102.349 38.8545   1
   4  -5   5 8765.99 349.584   3
  -4  -5  -5 9329.64 199.732   3
  -4  -5  -5 9200.55 311.718   1
  -4  -5  -5 9204.91 333.947   2
   4  -5   6 829.345 113.314   3
  -4  -5  -6 810.849 64.0669   3
  -4  -5  -6 908.266 106.431   2
  -4  -5  -6 987.115 99.7019   1
  -4  -5  -7 332.273 64.4011   2
   4  -5   7 417.685 84.1826   3
  -4  -5  -7 386.173 63.3274   1
  -4  -5  -7 415.830 50.5215   3
  -4  -5  -8 23.4066 15.4361   3
  -4  -5  -8 34.8832 27.3485   2
  -4  -5  -8 28.4594 24.9107   1
   4  -5   8-16.1392 37.1033   3
  -4  -5  -9 170.155 38.2282   3
  -4  -5  -9 197.103 49.6751   2
   4  -5   9 157.315 61.4808   3
  -4  -5  -9 185.208 48.6011   1
  -4  -5 -10 2082.82 144.313   3
   4  -5  10 2001.25 192.661   3
  -4  -5 -10 2282.72 183.618   2
  -4  -5 -10 1943.05 160.117   1
   4  -5  11-11.8117 29.4764   3
  -4  -5 -11 29.9632 26.2116   3
  -4  -5 -11 2.26714 20.8613   2
  -4  -5 -12 1.75305 16.8729   2
   4  -5  12 19.1480 29.5604   3
  -4  -5 -12-8.18795 14.4077   3
  -4  -5 -13 225.211 55.1679   3
  -4  -5 -13 255.799 64.8535   2
   4  -5  13 318.997 85.6771   3
  -4  -5 -14 2990.03 214.476   3
   4  -5  14 3233.08 270.078   3
  -4  -5 -15-55.8961 33.2038   3
   4  -5  15-48.4913 49.8093   3
   4  -5  16-110.514 69.3859   3
  -4  -5 -16-30.8158 28.2701   3
   4  -5  17 35.9508 33.0413   3
   4  -5  18 61.9071 37.4352   3
   4  -5  19 15.0845 46.5958   3
   4  -5  20 693.856 148.471   3
   4  -5  21 56.1909 49.6894   3
   4  -5  22-12.9009 34.1536   3
  -4  -6  22-46.4667 54.8929   3
   4   6 -22 27.7616 60.7534   2
  -4  -6  21 312.435 117.620   3
   4   6 -21 96.9834 80.2763   2
  -4  -6  20 55.6924 65.2094   3
   4   6 -20 20.5724 32.1652   2
  -4  -6  19 10.3876 41.8355   3
   4   6 -19 6.31776 49.8468   2
  -4  -6  18 144.532 73.0949   3
   4   6 -18 199.908 86.2413   2
  -4  -6  17 194.818 87.0287   3
   4   6 -17 109.275 70.1648   2
  -4  -6  16 497.463 120.616   3
   4  -6 -16 421.325 77.7917   2
   4   6 -16 337.991 109.422   2
   4  -6 -15 681.171 93.0943   2
   4   6 -15 882.829 148.126   2
  -4  -6  15 808.073 145.014   3
   4   6 -14 82.1370 64.7371   2
  -4  -6  14 35.5887 33.0654   3
   4  -6 -14 35.5147 13.3877   2
   4   6 -13 864.431 147.195   2
   4  -6 -13 797.135 108.472   1
  -4  -6  13 911.425 141.209   3
   4  -6 -13 803.311 93.0407   2
   4   6 -12 2597.18 225.666   3
   4   6 -12 2541.90 239.964   2
   4  -6 -12 2330.17 148.083   2
  -4  -6  12 2292.28 211.892   3
   4  -6 -12 2383.67 180.296   1
   4  -6 -12 2498.68 240.638   3
  -4  -6  11 1086.03 139.857   3
   4   6 -11 1145.58 158.923   2
   4   6 -11 1154.54 147.154   3
   4  -6 -11 1307.14 175.788   3
   4  -6 -11 1175.46 122.353   1
   4  -6 -11 1166.90 100.650   2
   4  -6 -10 79.1874 37.3222   3
   4  -6 -10 151.791 41.2990   1
   4   6 -10 137.193 58.3191   2
   4   6 -10 145.368 50.8723   3
   4  -6 -10 157.739 35.1549   2
  -4  -6  10 195.879 60.5044   3
   4  -6  -9 753.847 71.5554   2
   4   6  -9 614.254 95.8592   3
   4  -6  -9 588.197 80.2336   1
  -4  -6   9 718.065 106.527   3
   4   6  -9 687.087 116.524   2
   4   6  -8 1787.65 177.359   2
   4   6  -8 1540.32 148.385   3
  -4  -6   8 1432.26 142.537   3
   4  -6  -8 1724.40 98.0620   2
   4  -6  -7 7.18986 7.41435   2
   4   6  -7 27.3152 39.9146   2
  -4  -6   7-1.07064 25.5736   3
   4  -6  -6 1341.72 98.2725   1
   4   6  -6 1339.45 142.846   2
   4  -6  -6 1340.76 68.6129   2
  -4  -6   6 1458.32 126.673   3
   4  -6  -5 1.67668 4.13656   2
  -4  -6   5 23.7820 31.8945   2
   4   6  -5 33.4217 28.5310   2
  -4  -6   5-7.23002 16.5719   3
  -4  -6   4 15.9037 29.8451   3
  -4  -6   4 31.6218 28.1555   2
  -4  -6   3 517.129 63.6526   3
  -4  -6   3 545.023 86.4687   2
  -4  -6   2 954.326 115.036   2
  -4  -6   2 833.070 73.9654   3
  -4  -6   1 382.027 47.2276   3
  -4   6   1 366.464 49.5879   1
  -4  -6   1 438.213 75.5122   2
   4   6   0-3.38661 28.9778   1
  -4   6   0 26.5316 14.5270   1
  -4   6   0 15.7052 8.25803   2
  -4  -6   0 20.8156 13.2163   3
  -4  -6   0-0.62526 18.1369   2
  -4   6  -1 1404.43 78.0297   2
  -4   6  -1 1359.22 86.8949   1
  -4  -6  -1 1512.48 80.3642   3
  -4  -6  -1 1428.49 136.609   2
   4   6   1 1383.47 114.709   1
   4   6   2 497.365 73.3920   1
  -4   6  -2 440.078 51.0659   2
  -4  -6  -2 424.927 41.0738   3
  -4  -6  -2 478.451 79.5096   2
  -4   6  -3 1810.26 115.054   2
  -4  -6  -3 1712.83 146.211   2
  -4  -6  -3 1593.28 87.7420   3
   4   6   3 1461.47 126.957   1
  -4   6  -4 8123.14 264.676   2
   4  -6   4 7782.15 340.459   3
   4   6   4 7921.63 307.759   1
  -4  -6  -4 8046.80 320.992   2
  -4  -6  -4 8656.17 202.054   3
   4  -6   5 2478.63 196.733   3
  -4   6  -5 2649.03 159.859   2
  -4  -6  -5 2532.02 184.382   2
  -4  -6  -5 2534.34 113.187   3
  -4  -6  -6 256.373 40.2636   3
  -4  -6  -6 233.337 57.7517   2
  -4   6  -6 288.756 55.5989   2
   4  -6   6 328.000 75.8644   3
   4  -6   7 102.056 53.9559   3
  -4  -6  -7 75.5781 38.4434   2
  -4  -6  -7 45.7368 26.4722   1
  -4  -6  -7 65.9409 21.8441   3
   4  -6   8 358.489 87.6019   3
  -4  -6  -8 332.664 70.2498   2
  -4  -6  -8 316.601 67.4109   1
  -4  -6  -8 380.906 55.0093   3
   4  -6   9 120.398 59.6991   3
  -4  -6  -9 119.300 44.5196   2
  -4  -6  -9 136.589 35.6201   3
   4  -6  10 309.157 85.0969   3
  -4  -6 -10 245.641 50.6867   3
  -4  -6 -10 255.185 64.2187   2
  -4  -6 -11 1658.42 166.725   2
   4  -6  11 1648.30 186.864   3
  -4  -6 -11 1431.53 127.941   3
  -4  -6 -12 94.3929 45.6820   2
   4  -6  12 60.5669 44.3754   3
  -4  -6 -12 40.4665 24.0800   3
   4  -6  13 210.429 78.0090   3
  -4  -6 -13 216.544 51.7004   3
   4  -6  14 11.4709 42.0266   3
  -4  -6 -14 26.1146 36.2459   3
   4  -6  15-8.44084 42.1225   3
  -4  -6 -15 73.6336 38.7600   3
  -4  -6 -16 911.701 127.487   3
   4  -6  16 908.411 163.729   3
   4  -6  17 232.309 84.8953   3
   4  -6  18 59.3058 40.6110   3
   4  -6  19-66.2377 66.1858   3
   4  -6  20 90.7965 64.1597   3
   4  -6  21 271.328 104.919   3
  -4  -7  22-72.1238 62.6829   3
  -4  -7  21 55.4641 65.1774   3
   4   7 -21 1.39374 39.1663   2
   4   7 -20 103.143 52.6514   2
  -4  -7  20 283.190 103.490   3
  -4  -7  19-40.9080 49.9328   3
   4   7 -19-64.1605 56.6047   2
   4   7 -18 169.048 82.6142   2
  -4  -7  18 123.241 72.8320   3
  -4  -7  17 18.7591 35.4880   3
   4   7 -17 79.6186 61.7925   2
   4   7 -16 13.4924 37.8332   2
  -4  -7  16-15.7196 45.3234   3
  -4  -7  15 683.598 131.699   3
   4   7 -15 484.993 123.512   2
   4  -7 -14-11.8807 24.9166   2
  -4  -7  14 13.8805 32.4636   3
   4   7 -13 2581.40 255.468   2
   4  -7 -13 2365.71 159.681   2
  -4  -7  13 2702.90 244.289   3
   4  -7 -12 85.7247 37.0387   1
   4   7 -12 41.2885 43.6268   2
   4  -7 -12 70.1994 24.9323   2
  -4  -7  12 26.9342 26.7191   3
  -4  -7  11 37.1019 43.9697   3
   4  -7 -11 91.5457 49.0734   3
   4  -7 -11-14.7746 13.8476   2
   4   7 -11-3.67415 37.8383   2
   4  -7 -11 7.84213 15.1986   1
   4  -7 -10-64.8031 59.4596   3
   4   7 -10-2.45244 50.4026   2
   4  -7 -10-5.21419 14.3539   2
  -4  -7  10-18.6484 26.0751   3
   4  -7 -10-61.7201 36.7210   1
   4  -7  -9 359.573 47.6643   2
   4  -7  -9 299.357 56.6255   1
   4   7  -9 350.416 87.8546   2
  -4  -7   9 352.516 82.0500   3
   4  -7  -8 227.642 34.7452   2
   4  -7  -8 208.571 46.1813   1
  -4  -7   8 244.265 64.7957   3
   4   7  -8 339.969 82.5261   2
  -4  -7   7 520.337 87.6003   3
   4  -7  -7 532.071 46.8305   2
   4   7  -7 616.203 107.184   2
   4  -7  -6 1823.84 75.8522   2
   4   7  -6 1756.17 171.185   2
  -4  -7   6 1850.20 153.141   3
  -4  -7   5 852.367 120.567   2
   4   7  -5 824.065 114.100   2
  -4  -7   5 874.418 100.536   3
  -4  -7   4 3559.34 244.771   2
  -4  -7   4 3408.14 184.808   3
   4   7  -4 3369.82 222.642   2
  -4  -7   3 335.298 73.2261   2
   4   7  -3 262.214 65.0776   2
  -4  -7   3 396.064 61.3844   3
  -4  -7   2-1.66801 15.6504   3
   4   7  -2-9.33333 28.3171   2
  -4  -7   2 13.3670 29.1898   2
   4   7  -1 54.7641 28.6557   1
  -4  -7   1 69.7959 38.2742   2
  -4   7   1 50.0776 24.8648   1
  -4  -7   1 70.2156 26.7816   3
  -4  -7   0 250.835 39.1896   3
  -4   7   0 203.774 28.3628   2
   4   7   0 217.660 52.2880   1
  -4  -7   0 276.568 67.1724   2
  -4   7   0 203.205 40.8795   1
  -4   7  -1 335.299 40.8126   2
  -4  -7  -1 326.883 44.6737   3
  -4   7  -1 352.498 48.4443   1
   4   7   1 374.727 66.4577   1
  -4  -7  -1 349.082 71.6408   2
  -4   7  -2 6255.16 196.148   2
  -4  -7  -2 5750.25 287.487   2
  -4   7  -2 6690.21 217.050   1
   4   7   2 6129.63 273.973   1
  -4  -7  -2 5961.15 173.256   3
  -4  -7  -3 13.1797 10.2566   3
  -4   7  -3 47.4883 19.7686   2
  -4  -7  -3 44.2756 25.0635   2
   4   7   3 37.4652 30.7944   1
  -4   7  -4 1920.31 133.712   2
   4  -7   4 1770.35 171.538   3
  -4  -7  -4 1796.34 160.439   2
  -4  -7  -4 1768.74 107.459   3
   4   7   4 1604.66 151.470   1
  -4  -7  -5 283.996 62.0787   2
  -4   7  -5 431.651 70.8785   2
   4  -7   5 353.100 82.7277   3
   4   7   5 358.666 62.8715   2
  -4  -7  -5 360.637 46.9396   3
  -4  -7  -6 631.204 99.8465   2
   4  -7   6 531.307 100.412   3
  -4   7  -6 591.640 86.2759   2
   4   7   6 706.985 91.2999   2
  -4  -7  -6 634.381 65.8647   3
   4  -7   7 1110.46 146.754   3
  -4  -7  -7 1008.09 128.623   2
  -4  -7  -7 955.448 83.8558   3
  -4  -7  -8 580.341 101.021   2
  -4  -7  -8 555.139 65.5506   3
   4  -7   8 548.953 106.741   3
   4  -7   9 5170.07 333.302   3
  -4   7  -9 5024.94 277.135   2
  -4  -7  -9 5282.95 305.408   2
  -4  -7  -9 4886.63 210.996   3
  -4   7 -10-6.75582 35.1056   2
  -4  -7 -10-44.1673 34.5815   2
   4  -7  10-51.7109 45.4296   3
  -4  -7 -10 30.7393 18.7550   3
  -4  -7 -11 17.2268 25.7392   2
  -4   7 -11-30.3767 37.4652   2
  -4  -7 -11 39.9614 21.5841   3
  -4   7 -12 58.7845 46.5554   2
   4  -7  12 76.8898 45.9335   3
  -4  -7 -12 73.4035 31.1685   3
   4  -7  13-7.97890 45.1544   3
  -4   7 -13-10.5399 30.4722   2
  -4  -7 -13 27.5266 26.6092   3
  -4   7 -14 234.641 75.2371   2
   4  -7  14 223.176 85.8181   3
  -4   7 -15-22.1329 32.1613   2
   4  -7  15-45.9037 55.3729   3
  -4   7 -16 55.7667 55.4157   2
   4  -7  16 24.4986 28.6949   3
  -4   7 -17 156.688 61.6778   2
   4  -7  17 185.772 88.6420   3
  -4   7 -18 242.002 75.4634   2
   4  -7  18 397.386 115.061   3
  -4   7 -19 243.374 86.2147   2
   4  -7  19 156.776 81.6446   3
  -4   7 -20-105.623 65.3832   2
   4  -7  20 30.6563 40.6065   3
  -4   7 -21 46.3201 39.4429   2
  -4  -8  21 4.69110 37.3796   3
  -4  -8  20-16.8674 79.7232   3
   4   8 -20-84.9047 62.6982   2
  -4  -8  19 709.993 161.688   3
   4   8 -19 502.193 132.963   2
  -4  -8  18 0.32345 46.3202   3
   4   8 -18 4.07867 33.1346   2
  -4  -8  17-192.193 83.2565   3
   4   8 -17-32.6922 51.3964   2
   4   8 -16 148.078 71.4628   2
  -4  -8  16 109.029 57.5180   3
   4   8 -15-132.775 69.8079   2
  -4  -8  15-58.1171 55.5004   3
   4   8 -14 600.504 124.937   2
  -4  -8  14 563.398 120.015   3
   4   8 -13 30.0322 48.6506   2
  -4  -8  13-92.4780 54.7703   3
   4   8 -12 315.950 86.8694   2
  -4  -8  12 283.225 76.8827   3
   4   8 -11 13.0158 39.3560   2
  -4  -8  11-3.35863 34.8916   3
   4  -8 -10 211.038 38.0956   2
  -4  -8  10 225.848 67.1613   3
   4   8 -10 223.569 73.5689   2
   4  -8 -10 234.441 49.0424   1
   4   8  -9-7.61116 46.4880   2
   4  -8  -9-4.15080 10.1423   2
  -4  -8   9 5.23018 30.4799   3
   4  -8  -8 512.645 49.5033   2
   4   8  -8 545.907 109.874   2
  -4  -8   8 574.415 97.7807   3
   4   8  -7 89.8417 41.6980   2
   4  -8  -7 75.0668 17.1758   2
  -4  -8   7 82.4297 42.0754   3
  -4  -8   6 650.847 96.0571   3
   4   8  -6 699.180 112.963   2
   4   8  -5 147.357 48.8807   2
  -4  -8   5 261.507 61.2372   3
  -4  -8   4 415.564 91.7828   2
   4   8  -4 806.770 117.699   2
  -4  -8   4 456.355 72.8273   3
   4   8  -3 81.6783 41.5865   2
  -4  -8   3 56.4590 30.6450   2
  -4  -8   3 97.2152 34.0932   3
  -4  -8   2 1308.96 109.010   3
   4   8  -2 1203.90 137.025   2
   4   8  -2 1468.40 139.983   1
  -4  -8   2 1184.42 144.419   2
   4   8  -1-23.6334 27.3923   1
   4   8  -1 16.9329 21.6241   2
  -4  -8   1-15.8680 29.1256   2
  -4  -8   1 3.88685 16.2403   3
  -4   8   1 13.9334 23.7992   1
  -4   8   0 154.033 23.8338   2
  -4   8   0 145.319 37.5930   1
  -4  -8   0 50.0682 33.7886   2
   4   8   0 159.699 51.0564   2
  -4  -8   0 125.469 33.5099   3
   4   8   0 142.933 43.1404   1
  -4  -8  -1 3077.08 224.803   2
  -4   8  -1 3526.74 136.821   2
  -4  -8  -1 3265.07 148.487   3
   4   8   1 3414.13 213.717   1
   4   8   1 3355.44 213.644   2
  -4   8  -1 2804.86 156.006   1
  -4  -8  -2 223.774 55.7507   2
  -4   8  -2 275.212 45.4210   2
  -4  -8  -2 304.070 45.0888   3
   4   8   2 266.644 59.8138   2
   4   8   2 216.549 66.4293   1
  -4   8  -2 293.463 49.2743   1
  -4   8  -3 8.77746 18.1452   2
  -4  -8  -3 0.56336 13.6727   3
  -4   8  -3 33.9095 17.5245   1
   4   8   3 88.0295 45.5734   1
  -4  -8  -3 29.6734 19.0568   2
   4  -8   3 25.0499 37.7250   3
   4   8   3 23.9377 21.4867   2
   4   8   4 452.197 89.9544   1
   4   8   4 358.760 65.2861   2
   4  -8   4 227.396 62.6983   3
  -4  -8  -4 216.734 60.0461   2
  -4   8  -4 402.511 64.2674   2
  -4  -8  -4 287.616 41.5559   3
  -4  -8  -4 421.332 54.7553   3
  -4   8  -5 1003.73 106.821   2
  -4  -8  -5 941.192 85.0563   3
  -4  -8  -5 1039.24 130.774   2
   4   8   5 1009.40 115.630   2
   4  -8   5 827.416 128.199   3
  -4  -8  -6 181.363 36.3211   3
   4   8   6 152.335 46.1723   2
   4  -8   6 141.738 58.0496   3
  -4  -8  -6 135.843 49.5016   2
   4  -8   7 1107.82 154.711   3
  -4  -8  -7 1389.07 102.897   3
  -4  -8  -7 1392.87 156.843   2
  -4  -8  -8 87.2692 27.0656   3
  -4   8  -8 111.457 47.0314   2
   4  -8   8 36.3507 32.1066   3
  -4  -8  -8 28.0045 30.0457   2
  -4   8  -9 27.1541 27.1653   2
  -4  -8  -9 20.8576 23.2842   2
   4  -8   9 32.8537 33.0227   3
  -4  -8  -9 57.7015 21.5653   3
   4  -8  10 1040.68 156.516   3
  -4   8 -10 939.979 130.463   2
  -4  -8 -10 842.102 134.833   2
  -4   8 -11 320.058 82.3851   2
   4  -8  11 491.954 114.705   3
  -4   8 -12 98.7750 52.1512   2
   4  -8  12 34.4646 50.7248   3
   4  -8  13 228.866 84.0809   3
  -4   8 -13 153.606 65.9711   2
  -4   8 -14 64.4506 47.7098   2
   4  -8  14 31.0945 47.2942   3
  -4   8 -15 19.1202 30.6785   2
   4  -8  15-67.7440 60.7828   3
  -4   8 -16 24.9973 35.0443   2
   4  -8  16-9.66704 28.2104   3
  -4   8 -17-63.9240 45.9235   2
   4  -8  17-73.0183 65.0981   3
  -4   8 -18 9.59499 50.6892   2
   4  -8  18 29.6626 43.5228   3
  -4   8 -19 17.0004 37.7843   2
   4  -8  19 21.7698 43.3917   3
  -4   8 -20 260.825 93.9660   2
  -4   8 -21 63.7005 59.9057   2
  -4  -9  20-218.637 97.0483   3
  -4  -9  19-236.148 97.1684   3
   4   9 -19 1.70231 41.9918   2
  -4  -9  18-22.4159 35.1859   3
   4   9 -18 1.63586 40.0592   2
  -4  -9  17 38.4032 46.4659   3
   4   9 -17 69.5276 58.0005   2
  -4  -9  16 152.432 76.1234   3
   4   9 -16 79.4038 32.9221   2
   4   9 -15 73.8306 64.5204   2
  -4  -9  15-37.5524 27.8453   3
   4   9 -14 144.979 76.0291   2
  -4  -9  14 237.178 84.4315   3
   4   9 -13 472.206 112.704   2
  -4  -9  13 577.380 120.289   3
   4   9 -12 111.734 58.2359   2
  -4  -9  12 198.258 67.9949   3
   4   9 -11 5.11874 32.5525   2
  -4  -9  11-91.2436 61.3381   3
  -4  -9  10 268.968 75.9709   3
   4   9 -10 163.479 66.4894   2
  -4  -9   9 7.25434 29.0915   3
   4   9  -9 20.6834 28.1515   2
   4   9  -8 978.076 147.505   2
  -4  -9   8 1095.79 137.056   3
   4   9  -7 542.555 103.144   2
  -4  -9   7 443.966 82.9146   3
   4   9  -6 984.415 140.301   2
  -4  -9   6 1105.90 128.110   3
  -4  -9   5-15.7543 26.3784   3
   4   9  -5 33.8495 33.4396   2
   4   9  -4 180.573 56.7966   2
  -4  -9   4 197.743 54.9827   3
   4   9  -3 1.18435 21.6515   2
  -4  -9   3-25.6483 26.9139   2
  -4  -9   3 28.4235 23.3577   3
   4   9  -2-12.1340 27.0385   2
  -4  -9   2 2.96446 24.7690   2
   4   9  -2 28.9408 32.0190   1
  -4  -9   2-21.3171 24.9594   3
  -4  -9   1 27.4567 35.4377   2
   4   9  -1-5.65730 26.6196   2
  -4   9   1 5.70651 19.7433   1
   4   9  -1-12.7636 24.6311   1
  -4  -9   1 14.7459 17.2357   3
  -4  -9   0 407.621 60.5353   3
  -4   9   0 369.440 65.3227   1
   4   9   0 518.940 90.4630   1
  -4  -9   0 312.644 76.6446   2
  -4   9   0 413.475 35.0803   2
   4   9   0 337.606 73.7210   2
   4   9   1 26.0939 28.9289   2
  -4   9  -1 15.3992 24.1608   1
  -4  -9  -1 23.9894 20.8044   3
  -4   9  -1 27.9726 14.9426   2
   4   9   1 14.0832 27.6189   1
  -4  -9  -1 48.0888 32.9277   2
  -4   9  -2 562.477 76.1132   1
  -4  -9  -2 526.158 61.7908   3
  -4  -9  -2 474.745 93.3231   2
   4   9   2 432.473 81.5121   2
   4   9   2 404.029 82.1769   1
  -4   9  -2 556.760 62.5643   2
   4   9   3 47.6393 33.7596   2
   4   9   3-6.36306 23.0876   1
  -4  -9  -3 72.9800 41.7121   2
  -4   9  -3 27.8807 22.5907   2
  -4   9  -3 44.4911 29.4711   1
   4  -9   3 35.5759 41.0306   3
  -4  -9  -3 42.8285 18.5895   3
  -4  -9  -4-6.57959 20.2920   2
  -4  -9  -4-8.31945 11.8415   3
  -4  -9  -4 3.67047 11.0378   3
   4   9   4 22.0837 19.5145   2
   4  -9   4 17.9871 27.1604   3
  -4   9  -4 12.3008 22.5202   1
  -4   9  -4 0.09897 20.0307   2
   4   9   4 14.6490 36.8592   1
   4   9   5 209.471 53.9722   2
  -4  -9  -5 166.919 30.9986   3
  -4  -9  -5 194.696 59.9731   2
   4  -9   5 98.0006 42.3848   3
  -4  -9  -6 129.844 47.5733   2
   4  -9   6 112.106 40.8440   3
   4   9   6 172.841 51.7852   2
  -4  -9  -7 1744.84 181.293   2
   4  -9   7 1958.90 210.903   3
  -4   9  -7 2224.92 178.444   2
   4  -9   8 550.350 127.476   3
  -4   9  -8 528.364 96.4502   2
  -4   9  -9 265.625 72.0407   2
   4  -9   9 175.173 70.3475   3
  -4   9 -10 209.990 67.4233   2
   4  -9  10 200.830 76.3844   3
  -4   9 -11 69.8831 43.2660   2
   4  -9  11 42.5297 30.9140   3
   4  -9  12 141.452 64.0988   3
  -4   9 -12 130.129 58.0680   2
  -4   9 -13 58.6491 45.9789   2
   4  -9  13 72.4818 44.4889   3
  -4   9 -14 40.0831 31.0369   2
   4  -9  14 203.237 84.5661   3
  -4   9 -15-79.4066 51.0201   2
   4  -9  15 27.0966 44.4808   3
  -4   9 -16 48.5863 47.1323   2
   4  -9  16 10.6702 47.3229   3
  -4   9 -17 118.913 61.6937   2
   4  -9  17 131.514 85.4163   3
  -4   9 -18 0.27701 36.1090   2
  -4   9 -19 101.723 61.1900   2
  -4   9 -20 70.3724 62.7839   2
  -4 -10  18 6.39564 33.8636   3
  -4 -10  17 19.1188 51.6014   3
   4  10 -17 81.3890 66.2433   2
  -4 -10  16-20.3068 33.2011   3
   4  10 -16-12.3674 34.8926   2
   4  10 -15 11.6327 36.9315   2
  -4 -10  15 93.9988 47.6639   3
   4  10 -14-24.2648 34.5797   2
  -4 -10  14 4.74910 31.7117   3
   4  10 -13 103.115 61.4742   2
  -4 -10  13 129.707 63.1620   3
   4  10 -12-78.3067 54.3543   2
  -4 -10  12-19.1665 30.6242   3
  -4 -10  11 48.6012 46.1812   3
   4  10 -11-88.5777 55.8988   2
   4  10 -10 35.7715 25.5037   2
  -4 -10  10 15.8688 29.7594   3
   4  10  -9 198.587 72.0875   2
  -4 -10   9 163.130 56.8035   3
  -4 -10   8 30.0772 26.2375   3
   4  10  -8 131.047 61.7239   2
   4  10  -7 599.749 112.383   2
  -4 -10   7 622.465 104.105   3
   4  10  -6 34.5142 26.1823   2
  -4 -10   6 19.2769 20.6830   3
   4  10  -5 419.953 97.3257   2
  -4 -10   5 352.010 73.0578   3
   4  10  -4 43.6096 35.3363   2
  -4 -10   4-21.2587 16.6838   3
   4  10  -4-76.1482 43.4340   1
   4  10  -3 186.043 62.5796   2
  -4 -10   3 130.046 44.3312   3
   4  10  -3 108.493 45.6390   1
  -4 -10   2 361.738 65.3975   3
   4  10  -2 375.971 84.6336   2
   4  10  -2 316.046 74.3464   1
   4  10  -1 91.3215 50.9567   2
   4  10  -1 116.582 48.7467   1
  -4 -10   1 19.0675 22.3792   3
   4  10   0 157.139 62.0981   1
   4  10   0 112.259 39.5829   2
  -4  10   0 57.7883 30.8375   1
  -4 -10   0 76.2243 23.7541   3
  -4  10  -1 31.4576 27.3807   1
   4  10   1-5.40309 26.0796   1
   4  10   1 43.2624 27.8019   2
   4  10   2 699.482 116.780   1
   4  10   2 1007.02 124.074   2
  -4  10  -2 764.308 69.1622   2
   4 -10   2 805.927 132.296   3
  -4  10  -2 922.708 106.359   1
   4  10   3 63.8447 33.6374   2
   4 -10   3-19.0145 35.3625   3
   4  10   3 2.71958 28.9870   1
  -4  10  -3 21.3528 16.4521   2
  -4  10  -3 16.6425 21.4204   1
  -4  10  -4 332.063 59.2011   2
   4  10   4 391.471 77.8109   2
   4 -10   4 417.005 101.350   3
  -4  10  -4 311.460 62.5707   1
  -4  10  -5 267.761 57.3512   1
   4  10   5 235.233 62.4891   2
   4 -10   5 238.242 76.4955   3
   4 -10   6 276.451 84.0795   3
  -4  10  -7 892.201 112.581   2
   4 -10   7 951.471 156.877   3
   4 -10   8 361.816 102.778   3
  -4  10  -8 359.248 76.2086   2
  -4  10  -9 175.192 65.3495   2
   4 -10   9 136.448 69.8281   3
   4 -10  10 44.6369 46.1323   3
  -4  10 -10 3.38985 30.5346   2
  -4  10 -11 52.0795 49.0886   2
   4 -10  11 28.8756 43.0324   3
  -4  10 -12 33.9792 33.7033   2
   4 -10  12 71.3225 54.8406   3
  -4  10 -13 31.1928 33.9581   2
   4 -10  13 3.03975 40.0033   3
  -4  10 -14 121.664 50.6429   2
   4 -10  14 33.2334 36.8464   3
  -4  10 -15 253.365 86.6170   2
   4 -10  15 342.229 117.588   3
  -4  10 -16-150.487 68.1364   2
   4 -10  16-9.36512 34.6144   3
  -4  10 -17-23.2602 55.9118   2
  -4  10 -18-77.5418 53.9244   2
   4  11 -16-26.5101 32.5110   2
   4  11 -15 34.3120 37.3254   2
   4  11 -14 1.52691 36.9197   2
   4  11 -13-8.25006 39.0388   2
   4  11 -12-59.2530 47.1025   2
   4  11 -11 184.854 74.3841   2
   4  11 -10-41.9567 39.2887   2
   4  11  -9-66.2952 49.8997   2
   4  11  -8 63.4027 39.1715   2
   4  11  -7-27.3908 41.7191   2
   4  11  -6 20.2638 27.2290   2
   4  11  -6 78.8322 47.5942   1
   4  11  -5-16.7908 30.2922   2
   4  11  -5 41.9711 27.0981   1
   4  11  -4 158.276 62.9303   2
   4  11  -4 126.362 49.7196   1
   4  11  -3 65.3296 34.4942   2
   4  11  -3 148.230 58.2085   1
   4  11  -2 181.284 61.4546   2
   4  11  -2 283.541 74.9521   1
   4  11  -1 80.9673 47.8734   1
   4  11  -1 33.5191 34.2204   2
   4  11   0-21.4768 41.0105   1
   4 -11   0 5.33416 43.1851   3
   4  11   0-20.1556 22.8909   2
  -4  11  -1 64.6392 30.1240   1
   4 -11   1-16.0974 37.7365   3
   4  11   1 17.4504 20.1209   2
   4  11   1-17.5651 38.4359   1
   4 -11   2-73.1718 39.9211   3
  -4  11  -2 44.1036 28.0568   1
   4  11   2 23.7836 32.4591   1
   4  11   2-3.69427 22.5570   2
   4 -11   3 133.431 53.3122   3
  -4  11  -3 201.980 55.8492   1
   4  11   3 34.5103 27.2525   2
   4  11   3 126.382 58.6573   1
  -4  11  -4 9.26357 19.4406   1
   4  11   4 19.5379 20.8397   2
   4 -11   4 28.6982 38.3790   3
   4  11   5-10.0535 28.3864   2
   4 -11   5-32.3288 46.3746   3
  -4  11  -5 25.2931 30.3749   1
  -4  11  -6 103.739 39.1875   1
   4 -11   6 97.6747 55.7637   3
   4 -11   7 190.034 76.0665   3
   4 -11   8 40.2726 36.0425   3
   4 -11   9 108.149 61.8291   3
   4 -11  10-136.458 69.2096   3
   4 -11  11-42.2107 44.7134   3
   4 -11  12 20.0743 50.1875   3
   4 -11  13 287.715 111.613   3
   4 -11  14 73.7262 57.5671   3
   4  12 -13-81.1066 54.2499   2
   4  12 -12 25.1051 34.9680   2
   4  12 -11-37.5522 38.7310   2
   4  12 -10 72.3616 51.9763   2
   4  12  -9 19.9953 38.0527   2
   4  12  -8 279.398 86.0016   2
   4  12  -7 43.8276 46.4132   2
   4  12  -7 0.21596 25.1914   1
   4  12  -6 28.7438 31.9641   2
   4  12  -6 72.8044 49.7812   1
   4  12  -5 99.8992 61.5132   2
   4  12  -5 60.0533 37.2071   1
   4  12  -4 6.78028 33.8900   1
   4  12  -4-75.2571 45.3107   2
   4  12  -3 111.445 57.2218   1
   4  12  -2 68.2859 45.3881   1
   4  12  -1 680.510 132.232   1
   4 -12  -1 607.960 126.512   3
   4 -12   0 191.032 69.2165   3
   4  12   0 148.516 68.6361   1
   4  12   1 22.2031 31.7651   1
   4 -12   1 24.4885 24.9394   3
   4 -12   2 58.7814 30.8384   3
   4  12   2-53.3286 42.7821   1
   4 -12   3-161.266 69.0032   3
   4 -12   4 85.4862 60.6281   3
   4 -12   5-2.96716 40.3010   3
   4 -12   6-3.03622 39.3222   3
   4 -12   7-128.811 66.0655   3
   4 -12   8-47.7730 59.9096   3
   4 -12   9 14.4088 28.9375   3
   4 -12  10 45.3154 48.1626   3
   4 -12  11 86.9947 56.8787   3
   4  13  -6 11.7354 24.8677   1
   4  13  -5-11.2462 26.7049   1
   4  13  -4 102.634 61.8463   1
   4  13  -3-75.6493 50.6914   1
   4  13  -2 193.326 64.2706   1
   4  13  -1 7.06253 34.4571   1
   4  13   0 190.202 78.1755   1
   4  13   1 171.381 75.5951   1
  -5   0  24 14.2124 52.9284   3
  -5   0  23 0.39240 49.4122   3
  -5   0  22-71.4437 77.3445   3
  -5   0  21 40.3602 56.6373   3
  -5   0  20-3.23432 38.4476   3
  -5   0  19 1459.98 214.191   3
  -5   0  18-9.04744 43.9240   3
  -5   0  17 836.875 149.209   3
  -5   0  16-58.8838 62.5662   3
  -5   0  15 2290.05 236.003   3
  -5   0  14 26.6473 48.3765   3
   5   0 -14 4.60539 20.2746   3
   5   0 -13 16050.7 521.818   3
  -5   0  13 16798.5 582.141   3
   5   0 -12 11.9134 20.6865   3
   5   0 -11 1377.53 142.325   3
   5   0 -10 69.7329 36.3812   3
   5   0  -9 335.114 66.1939   3
   5   0  -9 302.848 64.3414   2
   5   0  -8 89.6683 43.3126   3
   5   0  -8 8.45506 27.8495   2
   5   0  -7 98302.5 931.885   2
   5   0  -7 96955.5 1033.28   3
   5   0  -6-3.90912 20.2781   3
   5   0  -6 12.1702 27.8776   2
   5   0  -5 1991.09 140.935   3
  -5   0   5 1969.60 120.222   2
   5   0  -5 2083.06 122.741   2
   5   0  -4-30.1599 21.7982   2
  -5   0   4-23.7351 26.1943   2
  -5   0   3 5156.90 172.944   2
   5   0  -3 5150.22 171.025   2
  -5   0   2 2.91920 14.1606   2
   5   0  -2-10.6034 14.1782   2
   5   0  -1 10509.9 231.468   2
  -5   0   1 10044.6 229.717   2
  -5   0   0 18.3769 16.2127   2
   5   0   0 40.3096 20.6502   2
   5   0   1 5527.97 166.421   2
  -5   0  -1 5256.02 169.072   2
   5   0   1 5541.50 126.069   1
  -5   0  -2-6.59818 12.3505   1
   5   0   2-20.0670 15.4969   2
  -5   0  -2-0.10967 13.7678   2
  -5   0  -3 2357.89 98.8171   1
  -5   0  -3 2509.52 122.697   2
   5   0   3 2427.21 116.722   2
   5   0   4-40.6841 28.4864   3
  -5   0  -4 1.12296 9.97081   2
  -5   0  -5 3763.50 163.257   2
   5   0   5 3622.70 164.402   3
  -5   0  -6-1.42988 11.9629   2
   5   0   6-21.1911 26.7017   3
   5   0   7 223.727 50.0660   3
  -5   0  -7 161.321 43.2570   3
  -5   0  -8-7.42626 18.4550   3
   5   0   8-51.8190 28.1463   3
  -5   0  -9 1231.33 121.842   3
  -5   0 -10 80.9998 27.2378   3
  -5   0 -11 4136.24 243.832   3
  -5   0 -12 52.3614 40.0449   3
   5   0  12 30.0140 45.3761   3
  -5   0 -13 10985.1 431.661   3
   5   0  13 10243.0 406.580   3
  -5   0 -14 5.72840 23.4564   3
   5   0  14 19.5048 28.4413   3
  -5   0 -15 3004.08 244.653   3
   5   0  15 3050.18 242.689   3
   5   0  16 43.9800 41.0911   3
   5   0  17 5941.01 367.758   3
   5   0  18-69.1836 63.1946   3
   5   0  19 186.476 77.3583   3
   5   0  20-43.8513 60.0131   3
   5   0  21 85.5168 65.5844   3
   5   0  22-26.6797 62.7594   3
   5   0  23 166.992 77.6890   3
   5   0  24-23.7207 45.6428   3
   5   0  25-25.4844 51.8885   3
  -5  -1  25-90.0724 77.0686   3
   5   1 -25-20.6489 49.2669   2
  -5  -1  24 233.562 103.013   3
   5   1 -24 76.7048 63.2878   2
   5   1 -23 35.7979 41.6978   2
  -5  -1  23 13.5569 33.4817   3
  -5  -1  22-62.1623 48.4298   3
  -5  -1  21 22.1711 48.3459   3
  -5  -1  20 89.2622 72.6127   3
  -5  -1  19 682.105 145.282   3
  -5  -1  18 1593.49 215.201   3
  -5  -1  17 2370.04 256.039   3
  -5  -1  16-57.7769 55.2815   3
  -5  -1  15 311.964 91.3678   3
  -5  -1  14 3584.27 277.961   3
   5   1 -14 3601.03 255.562   3
   5  -1 -14 4046.33 275.889   3
   5  -1 -13 724.317 112.976   3
  -5  -1  13 622.267 114.206   3
   5   1 -13 793.731 116.287   3
   5   1 -13 753.152 118.266   2
   5   1 -12 1774.05 166.377   2
  -5  -1  12 1916.01 188.178   3
   5   1 -12 1856.94 168.390   3
   5  -1 -12 1928.30 180.561   3
   5   1 -11 2713.37 195.987   2
   5   1 -11 2700.09 194.689   3
   5  -1 -11 2691.25 206.910   3
  -5  -1  11 2705.57 217.167   3
   5  -1 -10 692.675 102.916   3
   5   1 -10 560.232 85.6845   3
   5  -1  -9 361.504 72.8151   3
  -5  -1   9 424.615 81.6773   3
   5   1  -9 365.980 68.6309   3
   5  -1  -8-7.37239 24.0819   3
  -5  -1   8 31.5168 32.2248   3
   5  -1  -8 26.5091 30.1735   2
   5   1  -8 20.6574 24.5959   3
   5   1  -7 200.488 47.0609   3
  -5  -1   7 242.539 59.2406   3
   5  -1  -7 224.279 46.2987   2
   5  -1  -7 236.818 60.4125   3
  -5  -1   6 13356.2 367.476   3
   5  -1  -6 13258.4 396.229   3
   5   1  -6 13434.9 350.914   2
   5  -1  -6 13008.7 298.682   2
   5   1  -6 12445.2 337.227   3
   5  -1  -5 1546.66 97.6335   2
  -5  -1   5 1618.90 116.771   2
   5   1  -5 1472.11 111.956   2
   5   1  -5 1496.46 111.797   3
   5   1  -4 276.358 46.1674   3
   5   1  -4 257.028 48.9239   2
   5  -1  -4 313.278 43.3126   2
  -5  -1   4 289.969 49.5230   2
  -5   1   4 256.514 38.4008   2
   5   1  -3 6048.27 195.840   3
  -5  -1   3 5941.03 207.118   2
  -5   1   3 5921.26 167.626   2
   5  -1  -3 6369.92 167.639   2
   5  -1  -2-7.77959 15.3168   2
  -5  -1   2-12.9105 18.5197   2
  -5   1   2-5.24172 10.6930   2
  -5  -1   1 14032.4 300.133   2
   5  -1  -1 14276.8 231.163   2
  -5   1   1 14101.3 235.681   2
  -5   1   0 29662.5 347.655   2
   5  -1   0 29696.6 332.693   2
   5  -1   0 29812.4 195.676   1
  -5  -1   0 28340.3 425.813   2
  -5   1  -1 253431. 1056.84   2
   5   1   1 265735. 1000.08   1
   5  -1   1 258641. 995.380   2
  -5  -1  -1 257350. 1310.44   2
   5   1   2 85625.2 621.606   1
  -5  -1  -2 86536.6 597.711   1
  -5  -1  -2 85574.0 764.488   2
  -5   1  -2 84051.1 632.101   2
   5   1   3 94879.2 634.533   3
  -5  -1  -3 89279.8 800.267   2
  -5   1  -3 92466.0 686.701   2
  -5  -1  -3 90960.3 668.704   1
   5  -1   4 6406.72 225.278   3
  -5  -1  -4 6248.06 217.121   2
  -5  -1  -4 6065.05 185.294   1
   5   1   4 6717.76 185.768   3
  -5   1  -4 6554.56 195.153   2
  -5  -1  -5 100.227 29.9827   2
   5   1   5 96.4936 30.2863   3
   5  -1   5 30.5455 24.1121   3
  -5  -1  -5 109.545 31.1831   1
  -5  -1  -5 62.9204 19.8032   3
  -5  -1  -6 818.380 77.2611   3
   5   1   6 780.609 75.9800   3
   5  -1   6 760.215 86.6597   3
  -5  -1  -6 774.202 81.1986   2
  -5  -1  -7 1155.16 97.9341   3
   5  -1   7 947.253 105.447   3
   5   1   7 1109.12 95.4699   3
  -5  -1  -7 1140.89 102.279   2
  -5  -1  -8 920.448 96.1651   2
  -5   1  -8 907.256 104.470   3
   5   1   8 885.111 91.8824   3
  -5  -1  -8 943.552 95.3259   3
  -5  -1  -9 1076.39 109.863   3
   5   1   9 1096.04 106.219   3
  -5  -1  -9 1285.84 118.254   2
  -5   1  -9 1026.21 116.513   3
  -5   1 -10-19.3673 24.8330   3
  -5  -1 -10-6.75486 27.6756   3
  -5  -1 -11 817.348 105.874   3
  -5   1 -11 693.854 104.261   3
   5  -1  11 956.162 118.399   3
  -5  -1 -12 570.383 93.9829   3
  -5   1 -12 714.382 112.085   3
   5  -1  12 609.851 104.351   3
   5   1  12 691.104 100.735   3
   5   1  13 1354.95 148.245   3
  -5  -1 -13 1728.80 167.312   3
   5  -1  13 1345.39 153.359   3
  -5   1 -13 1675.33 173.963   3
  -5  -1 -14 404.765 85.8932   3
  -5   1 -14 324.303 81.9481   3
   5  -1  14 310.397 77.0663   3
   5   1  14 300.158 77.6962   3
  -5  -1 -15 597.628 105.769   3
   5  -1  15 542.408 103.645   3
   5   1  15 467.783 98.0017   3
   5   1  16 3193.79 257.031   3
   5  -1  16 3205.80 264.232   3
   5   1  17 987.269 158.382   3
   5  -1  17 1072.10 155.096   3
   5   1  18 22.4549 33.6722   3
   5  -1  18 86.1536 50.0775   3
   5   1  19 238.545 86.6600   3
   5  -1  19 165.081 72.5613   3
   5   1  20 239.839 90.1993   3
   5  -1  20 177.184 75.1461   3
   5   1  21 78.2513 58.2714   3
   5  -1  21 120.037 75.0717   3
   5   1  22 326.682 105.705   3
   5  -1  22 216.308 84.4337   3
   5   1  23 497.656 140.788   3
   5  -1  23 272.581 97.2047   3
   5   1  24 27.1161 46.2121   3
   5  -1  24 5.58576 41.8013   3
   5  -1  25-7.16512 43.6108   3
   5   1  25-63.3336 61.0096   3
   5   2 -25 37.7921 65.4542   2
  -5  -2  25 99.1092 69.7638   3
  -5  -2  24 169.935 85.6592   3
   5   2 -24 74.3011 45.8199   2
   5   2 -23 422.501 116.915   2
  -5  -2  23 231.092 98.6390   3
  -5  -2  22-52.3705 70.8889   3
   5   2 -22 17.1529 48.3093   2
  -5  -2  21 145.604 79.8344   3
   5   2 -21 61.0562 40.3035   2
  -5  -2  20 176.607 79.8845   3
   5   2 -20 10.8019 37.6064   2
  -5  -2  19 83.2939 46.5717   3
   5   2 -19 62.8436 51.2529   2
   5   2 -18 50.4047 44.5955   2
  -5  -2  18-29.9370 53.7570   3
   5   2 -17 753.097 127.758   2
  -5  -2  17 763.823 145.041   3
   5   2 -16-2.86122 47.5344   2
  -5  -2  16 22.9640 42.8519   3
  -5  -2  15 946.073 149.255   3
   5   2 -15 817.788 135.076   2
  -5  -2  14 44.7057 46.5367   3
   5   2 -14 45.5226 49.4639   2
   5  -2 -14 11.0719 38.1786   3
   5   2 -14 12.4893 20.5587   3
   5  -2 -13 741.539 119.485   3
  -5  -2  13 701.120 119.803   3
   5   2 -13 806.746 123.522   2
   5   2 -13 779.426 116.849   3
   5  -2 -12 50.0398 32.5333   3
  -5  -2  12 43.2740 45.6316   3
   5   2 -12 63.7053 50.0468   2
   5   2 -12 66.6803 40.2891   3
   5  -2 -11 319.594 72.0321   3
  -5  -2  11 235.635 65.5700   3
   5   2 -11 249.256 60.4465   3
   5   2 -10 1578.02 141.875   3
  -5  -2  10 1453.03 148.103   3
   5  -2 -10 1460.92 153.490   3
   5  -2  -9 420.861 84.5818   3
  -5  -2   9 448.393 79.8725   3
   5   2  -9 414.079 73.9910   3
   5  -2  -8 2928.57 206.865   3
  -5  -2   8 2675.53 182.610   3
   5   2  -8 2946.95 176.045   3
  -5  -2   7 789.710 92.4107   3
   5   2  -7 694.624 80.5660   3
  -5  -2   6 50.9979 25.5349   3
   5  -2  -6 110.365 30.0283   2
  -5  -2   6 39.4072 28.2546   2
   5   2  -6 69.5574 25.9366   3
  -5  -2   5 7955.01 281.266   2
   5  -2  -5 8317.92 201.357   2
   5   2  -5 7785.53 238.557   3
  -5  -2   5 8345.93 266.353   3
  -5  -2   4 17204.7 347.451   3
  -5  -2   4 16133.4 386.442   2
   5  -2  -4 17014.8 256.061   2
   5   2  -4 15664.4 316.753   3
  -5  -2   3 692.044 78.9827   2
   5  -2  -3 796.872 49.2103   2
   5   2  -3 690.060 58.6383   3
  -5   2   2 4430.85 108.675   2
  -5  -2   2 4186.08 187.018   2
   5  -2  -2 4327.70 105.840   2
   5   2  -2 4589.63 136.225   3
  -5   2   1 2574.79 82.3857   2
   5   2  -1 2785.07 92.5961   3
   5  -2  -1 2667.87 77.9158   2
  -5  -2   1 2527.04 138.305   2
  -5  -2   0 1589.54 110.981   2
  -5   2   0 1510.53 67.7175   2
   5  -2   0 1680.37 63.3646   2
  -5  -2  -1 69065.6 735.492   2
  -5   2  -1 70005.6 485.968   2
   5   2   1 70101.0 582.566   1
   5   2   2 8788.94 135.226   3
   5   2   2 8792.99 221.586   1
  -5  -2  -2 9338.07 273.934   2
  -5   2  -2 9008.69 188.481   2
   5   2   3 25.8282 20.9557   1
  -5  -2  -3 6.62246 15.9443   2
   5   2   3 4.31900 9.57962   3
  -5  -2  -3 3.82044 13.6692   1
  -5  -2  -4 1944.04 126.749   2
   5   2   4 1896.80 83.8772   3
   5   2   4 1716.60 114.856   2
  -5  -2  -4 1789.47 105.980   1
  -5  -2  -5 451.570 65.5894   2
  -5  -2  -5 449.623 47.8983   3
   5   2   5 489.890 48.8197   3
  -5  -2  -6 1712.77 124.996   2
  -5  -2  -6 1740.93 104.353   3
   5   2   6 1704.23 102.199   3
  -5  -2  -7 1092.05 104.814   2
  -5  -2  -7 1050.18 88.8438   3
   5   2   7 1071.28 88.4622   3
  -5  -2  -8 539.955 70.1489   3
  -5  -2  -8 509.996 74.7086   2
   5   2   8 610.102 75.0609   3
  -5  -2  -9 3006.15 174.019   3
   5   2   9 3062.12 173.874   3
  -5  -2  -9 2898.78 181.736   2
  -5  -2 -10 770.512 93.4838   3
  -5  -2 -10 801.491 100.050   2
  -5   2 -10 687.386 102.427   3
   5   2  10 660.144 88.6634   3
   5  -2  11 2853.85 210.825   3
  -5   2 -11 3019.73 224.435   3
  -5  -2 -11 3167.06 206.952   2
  -5  -2 -11 3098.96 195.690   3
  -5  -2 -12 119.649 44.9186   2
  -5   2 -12 106.856 46.5222   3
   5  -2  12 77.8590 28.6732   3
  -5  -2 -12 77.6341 35.2626   3
   5   2  13 330.066 72.8808   3
  -5  -2 -13 279.656 70.3442   2
   5  -2  13 245.843 70.1391   3
  -5   2 -13 298.754 78.8417   3
  -5  -2 -13 295.597 68.9880   3
   5  -2  14 1252.03 155.669   3
   5   2  14 1230.08 146.410   3
  -5  -2 -14 1128.34 139.200   3
   5   2  15 116.645 52.3813   3
  -5  -2 -15 101.084 45.1678   3
   5  -2  15 25.0026 38.1297   3
  -5  -2 -16 1055.42 144.877   3
   5  -2  16 1149.93 163.213   3
   5   2  16 1133.67 158.091   3
   5  -2  17 88.8242 56.6273   3
   5   2  17 35.8398 43.7190   3
   5   2  18 628.785 121.939   3
   5  -2  18 640.011 129.733   3
   5   2  19 67.6849 35.9506   3
   5  -2  19 55.9104 45.4998   3
   5   2  20 101.706 53.4888   3
   5  -2  20 96.0810 56.0667   3
   5   2  21 207.468 80.2322   3
   5  -2  21 296.045 104.189   3
   5   2  22-117.337 75.5432   3
   5  -2  22-36.6689 50.7729   3
   5  -2  23 102.359 79.8938   3
   5   2  23 128.481 88.2034   3
   5  -2  24 208.198 86.4918   3
   5   2  24-2.63975 43.6982   3
   5   2  25-137.912 83.5414   3
   5   2  26 79.3479 80.8784   3
  -5  -3  24-36.5528 37.4350   3
   5   3 -24 28.3462 50.3311   2
  -5  -3  23-27.3395 64.4336   3
   5   3 -23-23.9642 50.5040   2
  -5  -3  22 535.966 146.748   3
   5   3 -22 436.789 123.621   2
  -5  -3  21 32.2553 34.5788   3
   5   3 -21 51.4968 58.6801   2
   5   3 -20 224.219 86.3164   2
  -5  -3  20 179.156 80.4013   3
  -5  -3  19 277.436 91.5415   3
   5   3 -19 178.759 77.8619   2
   5   3 -18 33.2693 48.7647   2
  -5  -3  18 29.7210 33.4117   3
   5   3 -17 756.391 135.588   2
  -5  -3  17 914.812 156.618   3
  -5  -3  16-9.12364 61.7321   3
   5   3 -16-22.0029 44.5930   2
   5   3 -15 10663.1 477.322   2
  -5  -3  15 10327.2 490.022   3
  -5  -3  14 324.997 83.9171   3
   5   3 -14 240.723 70.3983   3
   5   3 -14 224.234 79.2885   2
  -5  -3  13 387.637 93.9340   3
   5   3 -13 369.438 91.3701   2
   5   3 -13 305.001 73.0798   3
   5  -3 -13 344.089 86.7757   3
  -5  -3  12 56.5871 34.5720   3
   5   3 -12 18.7585 32.0417   2
   5  -3 -12 19.7591 21.9047   3
   5   3 -12 34.8352 26.6208   3
  -5  -3  11 292.007 71.1049   3
   5   3 -11 310.387 67.3801   3
   5  -3 -11 226.730 64.9779   3
  -5  -3  10 289.816 63.8901   3
   5  -3 -10 443.355 86.8597   3
   5   3 -10 432.483 78.1182   3
   5  -3  -9 1101.36 136.765   3
   5   3  -9 1044.38 111.549   3
  -5  -3   9 1137.10 127.041   3
  -5  -3   8 20.0968 24.2480   3
   5   3  -8-2.42253 20.4922   3
   5   3  -7-9.85332 19.7304   3
  -5  -3   7 2.55852 20.3902   3
   5  -3  -6 946.481 68.8875   2
  -5  -3   6 1002.16 110.335   2
   5   3  -6 859.081 85.5594   3
  -5  -3   6 942.314 95.4463   3
   5  -3  -5 4914.28 133.752   2
  -5  -3   5 4820.68 235.442   2
   5   3  -5 4727.40 185.602   3
  -5  -3   5 4560.89 192.077   3
   5   3  -4 58.2072 19.9347   3
  -5  -3   4 102.144 40.2822   2
   5  -3  -4 85.0537 16.6942   2
  -5  -3   4 64.4351 18.7115   3
   5   3  -3 1644.42 88.7200   3
  -5  -3   3 1739.55 137.161   2
   5  -3  -3 1632.38 67.2753   1
  -5  -3   3 1724.74 98.8063   3
   5   3  -2 444.335 65.7949   2
  -5  -3   2 426.090 65.7421   2
   5   3  -2 440.211 40.1192   3
   5  -3  -2 426.178 26.2502   1
  -5  -3   2 497.844 45.8655   3
   5   3  -1 9.54521 8.09874   3
   5   3  -1 27.4924 26.1068   2
  -5  -3   1 57.1075 29.0997   2
   5   3   0 8.02469 23.8676   2
  -5   3   0 15.3746 6.20655   2
  -5  -3   0 58.1872 35.0370   2
  -5   3  -1 6623.03 135.930   2
   5   3   1 7209.50 210.291   1
   5   3   1 6579.08 234.544   2
  -5  -3  -1 7155.80 255.916   2
   5   3   2 40348.8 578.028   2
   5   3   2 40330.3 514.923   1
  -5  -3  -2 40582.9 620.546   2
  -5  -3  -3 69.2283 29.9987   2
   5   3   3 134.882 38.2765   2
   5   3   3 83.1787 33.9378   1
  -5  -3  -4 33755.4 581.094   2
   5   3   4 33665.8 530.209   1
  -5  -3  -4 33540.3 302.222   3
   5   3   4 34662.0 537.666   2
   5   3   4 34010.0 327.703   3
  -5  -3  -5 954.065 99.1171   2
   5   3   5 929.239 91.6663   2
  -5  -3  -5 1054.85 65.6253   3
   5   3   5 988.680 70.8573   3
  -5  -3  -6 10186.6 331.147   2
  -5  -3  -6 9733.98 229.206   3
   5   3   6 10238.0 244.998   3
  -5  -3  -7 24.4755 20.6471   3
   5   3   7 3.25057 15.4478   3
  -5  -3  -7 3.53972 15.0916   2
  -5  -3  -8 9668.05 334.883   2
  -5  -3  -8 9400.35 271.142   3
   5   3   8 10026.6 293.740   3
  -5  -3  -9 8.81081 20.9512   2
   5   3   9 31.3403 23.9929   3
  -5  -3  -9 43.1221 28.8446   3
  -5  -3 -10 1189.49 112.069   3
  -5  -3 -10 1337.19 132.865   2
   5   3  10 1305.94 123.672   3
   5  -3  11 42.4968 33.4272   3
  -5  -3 -11-4.79482 13.2230   2
  -5  -3 -11 6.91137 20.2728   3
  -5  -3 -12 50.5859 36.3436   2
   5  -3  12-6.93052 36.9956   3
  -5  -3 -12 4.30476 22.8268   3
   5  -3  13 537.310 105.168   3
  -5  -3 -13 662.249 102.878   2
  -5  -3 -13 542.624 89.8063   3
   5   3  13 499.247 91.5598   3
   5   3  14 213.762 75.4460   3
  -5  -3 -14 248.431 65.1516   3
   5  -3  14 339.538 83.4742   3
   5   3  15 36.3143 40.7628   3
  -5  -3 -15 66.0025 42.1589   3
   5  -3  15-36.3063 44.0439   3
  -5  -3 -16 8.17221 29.7835   3
   5  -3  16 65.0891 48.3110   3
   5   3  16 76.0483 42.3566   3
   5  -3  17-22.4498 40.1621   3
   5   3  17-74.0480 61.2816   3
   5   3  18 206.024 58.8531   3
   5  -3  18 91.1152 56.6844   3
   5  -3  19-20.8681 38.2268   3
   5   3  19 47.3559 37.9327   3
   5   3  20 452.339 119.242   3
   5  -3  20 427.024 115.671   3
   5   3  21 28.3185 45.2661   3
   5  -3  21 127.212 72.0400   3
   5   3  22 149.349 71.5067   3
   5  -3  22 97.8939 80.0491   3
   5   3  23 89.6773 64.6581   3
   5  -3  23 47.1268 40.1051   3
   5   3  24-34.3380 41.6505   3
   5   3  25-150.066 86.8361   3
   5   3  26 47.1766 58.2671   3
  -5  -4  24-137.868 84.7551   3
  -5  -4  23-24.2241 55.9282   3
   5   4 -23-100.295 70.5191   2
  -5  -4  22 14.1407 38.1075   3
   5   4 -22 54.9959 43.7392   2
  -5  -4  21 0.34758 57.1600   3
   5   4 -21 94.7959 65.5636   2
  -5  -4  20 654.951 155.123   3
   5   4 -20 637.815 139.077   2
  -5  -4  19-29.7555 71.9424   3
   5   4 -19 14.3769 44.0926   2
  -5  -4  18 86.6131 64.0208   3
   5   4 -18 44.5196 44.4025   2
  -5  -4  17 95.8198 64.5507   3
   5   4 -17 54.5829 46.6736   2
  -5  -4  16 7.55275 33.9383   3
   5   4 -16 34.2396 53.7877   2
   5   4 -15 432.229 108.019   2
  -5  -4  15 479.326 110.548   3
  -5  -4  14 902.534 142.324   3
   5   4 -14 852.303 140.219   2
   5   4 -13 3448.61 253.154   3
   5   4 -13 3010.91 258.460   2
  -5  -4  13 3337.62 255.945   3
   5  -4 -13 3447.79 274.901   3
   5  -4 -12 127.488 56.0080   3
   5   4 -12 148.182 65.5703   2
   5   4 -12 72.5018 37.0138   3
  -5  -4  12 89.1545 46.0006   3
   5   4 -11 3338.96 248.372   2
   5   4 -11 3207.44 225.743   3
  -5  -4  11 3418.96 237.605   3
   5  -4 -11 3221.40 257.181   3
   5   4 -10 1090.96 126.373   3
   5   4 -10 999.839 132.452   2
  -5  -4  10 1024.25 125.569   3
   5  -4 -10 1112.42 147.669   3
  -5  -4   9 442.437 78.1207   3
   5   4  -9 446.978 89.4641   2
   5   4  -9 524.530 80.7976   3
  -5  -4   8 3.29752 20.5541   3
   5   4  -8-0.22558 15.9990   3
   5   4  -8-1.88609 34.6707   2
   5   4  -7 2671.67 167.108   3
  -5  -4   7 2375.93 162.317   3
  -5  -4   6 7717.97 324.088   2
   5   4  -6 7796.52 267.809   3
  -5  -4   6 8202.97 277.777   3
  -5  -4   5 4153.16 231.250   2
   5  -4  -5 4109.16 101.763   2
   5   4  -5 3895.75 175.759   3
   5  -4  -5 3968.85 144.123   1
  -5  -4   5 4388.17 188.939   3
  -5  -4   4 11338.1 379.367   2
   5   4  -4 11440.2 278.699   3
   5  -4  -4 11095.7 212.459   1
  -5  -4   4 11602.3 284.192   3
   5  -4  -3 8832.62 164.265   1
  -5  -4   3 9598.39 337.493   2
   5   4  -3 9101.76 313.544   2
   5   4  -3 9415.20 224.104   3
  -5  -4   3 9858.94 235.705   3
   5   4  -2 178.163 47.2719   2
  -5  -4   2 199.747 30.2954   3
   5   4  -2 176.278 27.1259   3
  -5  -4   2 213.118 51.9884   2
  -5  -4   1 160.767 22.6661   3
   5   4  -1 106.274 36.2448   2
  -5  -4   1 116.755 34.5199   2
  -5   4   0 13101.5 177.754   1
  -5  -4   0 13822.3 385.249   2
   5   4   0 14130.2 372.230   2
   5   4   1 23540.3 475.178   2
  -5  -4  -1 24275.5 507.834   2
   5   4   1 24026.6 418.048   1
   5   4   2 10469.5 312.119   2
   5   4   2 10621.3 289.484   1
  -5  -4  -2 10849.5 340.782   2
   5   4   3 1406.22 116.268   2
   5   4   3 1457.01 115.018   1
  -5  -4  -3 1529.36 131.369   2
   5   4   4 1755.06 128.421   1
  -5  -4  -4 1775.02 143.473   2
  -5  -4  -5 16.7111 13.8437   2
  -5  -4  -5 31.4650 8.42035   3
  -5  -4  -6 1623.13 138.803   2
  -5  -4  -6 1626.40 86.7800   3
  -5  -4  -7 751.430 96.7522   2
  -5  -4  -7 753.021 66.9068   3
  -5  -4  -8 277.937 44.2708   3
  -5  -4  -8 305.810 62.9348   2
   5   4   9 307.422 56.6969   3
   5  -4   9 451.766 94.0828   3
  -5  -4  -9 378.528 74.5153   2
  -5  -4  -9 369.123 54.0257   3
  -5  -4  -9 498.624 77.4613   1
   5   4  10 1002.12 110.542   3
  -5  -4 -10 859.712 107.192   1
   5  -4  10 897.319 127.906   3
  -5  -4 -10 942.281 114.376   2
  -5  -4 -10 880.142 92.4460   3
   5   4  11 11.3704 18.6128   3
  -5  -4 -11-7.96285 23.6294   1
   5  -4  11 8.10155 30.3582   3
  -5  -4 -11-8.80626 20.5374   3
  -5  -4 -11-10.5421 24.3811   2
  -5  -4 -12 37.3172 25.6912   2
  -5  -4 -12 38.3662 22.2998   3
   5  -4  12 21.2553 39.4871   3
   5  -4  13 119.819 56.1230   3
  -5  -4 -13 52.9715 22.9179   3
  -5  -4 -14 221.612 62.1102   3
   5   4  14 251.191 75.1354   3
   5  -4  14 248.167 77.6823   3
  -5  -4 -15 1262.20 147.754   3
   5  -4  15 1265.41 171.483   3
   5   4  15 1539.38 178.208   3
   5   4  16 175.931 63.6120   3
   5  -4  16 66.5133 45.9211   3
  -5  -4 -16 108.452 46.2490   3
   5   4  17 672.206 128.800   3
   5  -4  17 688.090 133.920   3
   5   4  18 432.831 106.129   3
   5  -4  18 212.442 72.8571   3
   5   4  19 310.957 108.891   3
   5  -4  19 404.652 116.199   3
   5   4  20-42.8689 52.4257   3
   5  -4  20 36.8368 32.6297   3
   5   4  21-3.51023 47.6015   3
   5  -4  21 20.1361 50.3403   3
   5   4  22 90.8832 79.8230   3
   5  -4  22 149.856 78.1256   3
   5  -4  23 108.196 97.4024   3
   5   4  23-17.5349 42.6151   3
  -5  -5  23-162.387 87.7494   3
   5   5 -23-37.4157 54.5848   2
  -5  -5  22-61.0919 64.0338   3
   5   5 -22 80.4858 66.8936   2
  -5  -5  21 84.8092 67.4911   3
   5   5 -21-87.0088 65.2078   2
   5   5 -20 102.835 67.2739   2
  -5  -5  20-102.092 78.2564   3
  -5  -5  19 1086.42 183.582   3
   5   5 -19 1147.86 187.653   2
  -5  -5  18-37.1086 45.7621   3
   5   5 -18-45.5003 59.6261   2
  -5  -5  17-116.689 76.4139   3
   5   5 -17 22.6738 56.1209   2
  -5  -5  16-54.1357 60.4661   3
   5   5 -16 16.0646 53.9368   2
   5   5 -15 387.513 97.9182   2
  -5  -5  15 440.796 106.867   3
  -5  -5  14 428.931 99.4559   3
   5   5 -14 444.573 107.086   2
  -5  -5  13 425.744 98.5131   3
   5   5 -13 163.647 75.1283   2
   5   5 -13 298.173 81.8356   3
  -5  -5  12 1670.88 177.258   3
   5  -5 -12 1740.77 198.263   3
   5   5 -12 2009.01 208.387   2
   5   5 -12 1762.12 182.295   3
  -5  -5  11 28.5382 36.5159   3
   5  -5 -11 29.1847 44.9783   3
   5   5 -11 16.8621 45.8660   2
   5   5 -11-3.81117 23.0628   3
  -5  -5  10 719.358 112.223   3
   5  -5 -10 660.014 116.716   3
   5   5 -10 628.786 96.9165   3
   5   5 -10 674.526 120.026   2
  -5  -5   9 51.3913 37.3549   3
   5   5  -9 126.085 47.0655   3
   5   5  -9 134.724 54.0282   2
   5   5  -8 1221.09 145.742   2
  -5  -5   8 1209.15 125.956   3
   5  -5  -8 1399.47 81.3070   2
   5   5  -8 1319.93 130.822   3
   5  -5  -8 1279.54 106.946   1
   5  -5  -7 81.2555 18.7911   2
   5  -5  -7 75.1826 27.9538   1
   5   5  -7 77.0543 45.2819   2
   5   5  -7 48.5436 21.9430   3
  -5  -5   7 59.7677 26.9976   3
   5  -5  -6 1817.41 69.4446   2
  -5  -5   6 1488.93 148.827   2
  -5  -5   6 1694.83 130.974   3
   5   5  -6 1661.26 155.556   2
   5   5  -6 1620.68 125.575   3
   5  -5  -6 1724.49 104.972   1
  -5  -5   5 154.556 45.3857   2
   5  -5  -5 122.963 25.7754   1
   5   5  -5 130.788 36.7752   3
  -5  -5   5 163.071 38.7647   3
  -5  -5   4 3037.08 205.523   2
   5   5  -4 2834.69 144.511   3
   5  -5  -4 2889.98 115.022   1
  -5  -5   4 2901.01 145.374   3
  -5  -5   3 2038.89 168.560   2
  -5  -5   3 2067.09 111.928   3
  -5  -5   2 759.146 102.476   2
  -5  -5   2 693.972 57.1472   3
  -5  -5   1 49.4209 29.2446   2
  -5  -5   1 87.3613 17.9721   3
   5   5   0 1683.96 124.626   1
  -5   5   0 1287.41 70.6304   1
  -5  -5   0 1465.42 133.498   2
  -5  -5   0 1298.09 55.8392   3
   5   5   1 411.347 63.5713   1
  -5   5  -1 459.642 39.3028   1
  -5   5  -1 394.815 37.4018   2
  -5  -5  -1 357.359 66.8612   2
   5   5   2 18.6701 22.0477   1
  -5   5  -2 57.6001 20.0857   2
  -5  -5  -2-16.0032 24.9890   2
  -5  -5  -3 5012.36 250.832   2
   5   5   3 4899.13 219.645   1
   5   5   4 6.93159 28.8056   1
  -5  -5  -4 6.74811 16.2195   2
   5  -5   5 17450.8 506.187   3
  -5  -5  -5 17640.0 224.982   3
  -5  -5  -5 18350.6 492.453   2
   5  -5   6 711.500 108.480   3
  -5  -5  -6 489.483 81.2548   1
  -5  -5  -6 626.074 52.9002   3
  -5  -5  -6 940.891 112.946   2
  -5  -5  -7 343.855 62.9899   1
  -5  -5  -7 397.514 76.9589   2
   5   5   7 386.721 67.0915   2
  -5  -5  -7 342.648 43.8876   3
   5  -5   7 303.836 75.7121   3
  -5  -5  -8 55.1128 23.2334   1
   5  -5   8 92.1699 55.2356   3
  -5  -5  -8 19.9368 14.0800   3
  -5  -5  -8 55.0060 33.2315   2
  -5  -5  -9 1361.48 141.052   2
   5  -5   9 1151.71 147.686   3
  -5  -5  -9 1273.14 100.794   3
  -5  -5  -9 1248.48 124.799   1
  -5  -5 -10 479.559 89.6827   2
  -5  -5 -10 542.394 72.6191   3
   5  -5  10 568.738 106.721   3
  -5  -5 -11 1068.11 133.844   2
   5  -5  11 1020.79 145.021   3
  -5  -5 -11 1022.65 105.239   3
  -5  -5 -12 82.1480 37.6208   2
  -5  -5 -12 71.5401 29.0884   3
   5  -5  12 125.572 58.6555   3
  -5  -5 -13 506.313 83.5564   3
   5  -5  13 632.071 118.772   3
   5  -5  14 638.424 124.005   3
  -5  -5 -14 611.402 95.4549   3
  -5  -5 -15-6.21939 28.8451   3
   5  -5  15 104.862 61.2278   3
  -5  -5 -16 74.3208 34.2460   3
   5  -5  16 104.493 62.7387   3
   5  -5  17 408.267 111.374   3
   5  -5  18 1199.48 188.063   3
   5  -5  19-1.19893 48.6870   3
   5  -5  20 3.81295 54.4183   3
   5  -5  21 124.808 73.7830   3
   5  -5  22-74.4774 73.6160   3
  -5  -6  22 8.23022 62.5649   3
   5   6 -22-20.8205 36.2085   2
  -5  -6  21-61.4644 53.4937   3
   5   6 -21 85.0138 69.7591   2
  -5  -6  20 339.911 114.451   3
   5   6 -20 190.209 86.8520   2
   5   6 -19-69.4734 69.4801   2
  -5  -6  19 47.4878 50.6861   3
   5   6 -18-73.1224 63.1691   2
  -5  -6  18-3.59819 44.5595   3
  -5  -6  17 360.876 109.966   3
   5   6 -17 412.521 107.916   2
  -5  -6  16 10.9055 38.5468   3
   5  -6 -16 58.9154 33.2095   2
   5  -6 -15 4.12184 11.5676   2
   5   6 -15-10.9774 58.2553   2
  -5  -6  15 27.9478 45.5605   3
   5  -6 -14 183.988 48.4884   2
   5   6 -14 342.520 106.758   2
  -5  -6  14 239.218 76.4750   3
   5   6 -13 1607.17 195.659   2
   5  -6 -13 1447.60 118.793   2
  -5  -6  13 1518.46 180.038   3
  -5  -6  12 476.773 101.539   3
   5   6 -12 486.740 110.460   2
   5  -6 -12 360.255 56.5641   2
   5   6 -12 421.736 92.6186   3
   5  -6 -12 314.070 63.9844   1
   5  -6 -11 290.915 61.2276   1
   5  -6 -11 177.945 66.4938   3
   5   6 -11 233.059 68.6328   3
   5   6 -11 275.710 78.2962   2
   5  -6 -11 236.619 43.7651   2
  -5  -6  11 289.987 78.1593   3
   5  -6 -10 58.7244 21.3457   2
   5  -6 -10 29.9610 22.8039   1
   5   6 -10 102.938 64.4169   2
  -5  -6  10 11.7428 24.9975   3
   5   6 -10 13.4335 19.2594   3
   5  -6  -9 1115.94 80.5813   2
   5   6  -9 1030.98 126.459   3
  -5  -6   9 972.924 122.484   3
   5   6  -9 1047.86 145.252   2
  -5  -6   8 1385.40 138.676   3
   5   6  -8 1385.70 160.513   2
   5  -6  -8 1463.79 80.6798   2
   5   6  -8 1214.54 130.086   3
   5  -6  -7 77.2169 26.3236   1
   5  -6  -7 36.5302 11.2194   2
   5   6  -7 39.0802 46.9166   2
   5   6  -7 47.5957 28.9686   3
  -5  -6   7 8.49463 19.5319   3
  -5  -6   6 58.2364 40.4597   2
   5  -6  -6 125.401 30.3368   1
   5   6  -6 73.3736 40.1747   2
  -5  -6   6 117.158 36.6613   3
   5   6  -5 108.857 48.9985   2
  -5  -6   5 86.4849 42.0676   2
  -5  -6   5 56.1892 21.3292   3
  -5  -6   4 40.8007 35.3631   2
  -5  -6   4-7.82634 15.9409   3
   5   6  -4-17.3400 30.3278   2
   5   6  -3 1020.49 115.339   2
  -5  -6   3 1077.66 131.250   2
  -5  -6   3 1130.15 89.2929   3
  -5  -6   2 85.6001 47.1081   2
  -5  -6   2 175.130 31.7789   3
  -5  -6   1 49.8725 34.0996   2
  -5  -6   1 49.0519 16.1444   3
  -5  -6   0 1862.68 162.958   2
   5   6   0 2086.57 148.063   1
  -5   6   0 1806.88 95.8387   1
  -5  -6   0 1775.89 76.5891   3
  -5   6  -1 1069.61 60.5392   2
   5   6   1 1014.49 99.2455   1
  -5  -6  -1 1053.12 120.422   2
  -5  -6  -1 977.850 46.9645   3
  -5   6  -1 1027.47 70.8156   1
   5   6   2 391.001 67.4347   1
  -5   6  -2 412.741 46.4122   2
  -5  -6  -2 382.469 72.9018   2
  -5   6  -3 17.0030 16.8795   2
   5   6   3 59.9254 27.5785   1
  -5  -6  -3 24.1990 18.9686   2
   5   6   4 429.028 72.8835   1
  -5   6  -4 451.058 60.1214   2
  -5  -6  -4 377.574 74.4901   2
   5   6   5 386.829 66.3529   2
   5  -6   5 457.500 88.8925   3
  -5   6  -5 525.252 70.8042   2
   5   6   5 470.175 82.3321   1
  -5  -6  -5 441.357 35.8279   3
  -5  -6  -5 440.542 81.9304   2
  -5  -6  -6-5.50996 23.9052   2
   5   6   6 81.6626 36.1360   2
  -5   6  -6 69.1013 31.5509   2
   5  -6   6 47.3109 35.5019   3
  -5  -6  -6 70.8343 19.5330   3
  -5  -6  -7 628.317 97.2959   2
   5  -6   7 611.619 109.654   3
  -5  -6  -7 655.937 59.4648   3
  -5  -6  -7 553.755 94.1054   1
   5   6   7 694.952 90.1051   2
  -5  -6  -8 7.80671 13.5334   2
   5  -6   8 15.6175 37.7357   3
  -5  -6  -8 4.85129 12.7620   3
  -5  -6  -9 60.8267 32.3690   2
   5  -6   9 6.14222 30.8240   3
  -5  -6  -9 28.9503 20.4656   3
  -5  -6 -10 1504.86 161.502   2
  -5  -6 -10 1551.48 117.914   3
   5  -6  10 1615.74 184.577   3
  -5  -6 -11 1392.66 159.787   2
   5  -6  11 1386.80 174.996   3
  -5  -6 -11 1354.84 118.592   3
  -5  -6 -12-8.91163 13.6231   3
   5  -6  12 44.9959 37.0940   3
   5  -6  13 390.321 105.066   3
  -5  -6 -13 553.379 86.1585   3
   5  -6  14 48.6114 39.2578   3
  -5  -6 -14 105.003 39.9876   3
   5  -6  15 561.645 130.239   3
  -5  -6 -15 432.103 80.4720   3
   5  -6  16 114.681 59.7463   3
   5  -6  17 299.126 92.1793   3
   5  -6  18 19.4422 73.5377   3
   5  -6  19 344.795 103.148   3
   5  -6  20 88.7937 40.6239   3
   5  -6  21 142.482 67.7048   3
  -5  -7  22 7.71651 41.2842   3
  -5  -7  21-97.8394 70.8077   3
   5   7 -21 25.0094 46.6742   2
   5   7 -20-159.733 79.1307   2
  -5  -7  20 21.0124 52.8055   3
  -5  -7  19-30.3833 44.3538   3
   5   7 -19 65.5899 64.1230   2
  -5  -7  18 16.2289 35.9942   3
   5   7 -18-80.6471 73.3912   2
  -5  -7  17 457.364 117.282   3
   5   7 -17 451.952 114.767   2
  -5  -7  16 24.6857 47.6660   3
   5   7 -16 145.431 81.1394   2
  -5  -7  15 153.337 65.5693   3
   5   7 -15 146.114 66.8936   2
  -5  -7  14 289.883 89.5506   3
   5   7 -14 117.894 72.1867   2
   5   7 -13 1903.11 217.108   2
   5  -7 -13 2139.09 143.398   2
  -5  -7  13 2176.83 221.301   3
   5   7 -12 0.70510 38.7966   2
   5  -7 -12 15.4019 23.0501   1
   5  -7 -12 1.29526 11.3557   2
  -5  -7  12 8.96551 40.4298   3
   5   7 -11 226.698 66.6768   3
  -5  -7  11 200.546 61.4619   3
   5  -7 -11 255.916 56.8317   1
   5   7 -11 289.822 86.5086   2
   5  -7 -11 309.622 46.7684   2
   5  -7 -10-4.10233 19.1782   1
   5  -7 -10 16.8078 11.4938   2
   5   7 -10 55.9779 43.5293   2
  -5  -7  10 27.1584 34.7693   3
   5  -7  -9 2382.19 153.392   1
   5   7  -9 2316.36 217.355   2
  -5  -7   9 2386.41 197.454   3
   5  -7  -9 2400.21 109.190   2
   5   7  -8-24.6553 43.9364   2
  -5  -7   8 17.4486 23.3417   3
   5  -7  -8 1.58990 7.21936   2
  -5  -7   7-5.19597 20.3272   3
   5   7  -7 55.9643 39.5054   2
  -5  -7   6 567.579 82.9400   3
  -5  -7   6 609.051 107.689   2
   5   7  -6 485.516 92.3447   2
   5   7  -5 6851.26 337.111   2
  -5  -7   5 7749.72 377.947   2
  -5  -7   5 7678.49 284.405   3
  -5  -7   4 1349.55 154.230   2
  -5  -7   4 1248.88 108.041   3
   5   7  -4 1298.83 143.257   2
  -5  -7   3 930.445 124.390   2
  -5  -7   3 1095.16 93.3526   3
   5   7  -3 1038.39 125.393   2
   5   7  -2 47.3944 30.9167   2
  -5  -7   2 41.3517 30.0877   2
  -5  -7   2 24.3573 21.9079   3
  -5  -7   1 1064.23 133.048   2
   5   7  -1 970.638 110.235   1
  -5  -7   1 1003.53 75.6835   3
   5   7  -1 989.865 121.471   2
   5   7   0 1224.44 121.193   1
  -5  -7   0 1296.48 76.4260   3
   5   7   0 1309.50 134.819   2
  -5  -7   0 1289.59 144.452   2
  -5   7   0 1348.80 95.3835   1
  -5  -7  -1 2.75919 19.6238   2
  -5   7  -1 6.04773 8.02883   2
  -5   7  -1-11.1253 16.3104   1
   5   7   1-42.1395 38.8982   1
   5   7   1-6.25577 22.2375   2
  -5  -7  -1 8.32789 11.9276   3
  -5   7  -2 6.59083 9.90754   2
  -5  -7  -2 18.0034 9.54259   3
  -5   7  -2 14.1119 16.0832   1
  -5  -7  -2 7.39902 17.9349   2
  -5  -7  -2 6.66657 5.81470   3
   5   7   2 13.5699 26.9718   2
   5   7   2 18.1770 28.5434   1
   5   7   3 162.529 53.5402   1
  -5   7  -3 224.352 42.7398   2
  -5  -7  -3 221.068 58.5432   2
   5   7   3 246.783 58.0255   2
  -5  -7  -3 189.844 24.4172   3
   5   7   4 2034.52 170.577   1
  -5   7  -4 1981.16 130.878   2
   5   7   4 2129.23 163.487   2
  -5  -7  -4 1929.71 173.890   2
  -5  -7  -4 1845.91 69.8650   3
   5   7   5 91.7310 30.5845   2
   5  -7   5 45.7823 42.5071   3
  -5   7  -5 91.7115 34.5735   2
   5   7   5 64.1538 34.8938   1
  -5  -7  -5 82.6252 15.7463   3
  -5  -7  -5 104.853 43.3656   2
  -5  -7  -6 109.948 41.5472   2
   5   7   6 123.768 39.7293   2
  -5   7  -6 114.596 39.7292   2
  -5  -7  -6 119.256 22.8476   3
   5  -7   6 84.6119 49.9508   3
  -5  -7  -7 137.576 51.6466   2
   5   7   7 226.562 53.1475   2
   5  -7   7 227.055 77.0508   3
  -5  -7  -7 252.156 37.0080   3
  -5  -7  -8 669.454 110.577   2
   5  -7   8 918.650 144.116   3
  -5  -7  -8 802.831 70.4310   3
  -5  -7  -9 616.833 108.655   2
  -5   7  -9 661.473 98.9026   2
  -5  -7  -9 682.219 70.3481   3
   5  -7   9 782.144 132.369   3
  -5   7 -10 787.520 116.440   2
  -5  -7 -10 684.649 115.465   2
   5  -7  10 774.070 137.385   3
  -5  -7 -10 813.603 84.4137   3
  -5   7 -11 118.337 51.5510   2
   5  -7  11 103.150 62.1167   3
  -5  -7 -11 172.032 43.6870   3
   5  -7  12 144.189 61.3205   3
  -5  -7 -12 80.9119 31.6613   3
   5  -7  13 757.721 143.719   3
   5  -7  14 171.196 82.2853   3
   5  -7  15 115.613 64.1095   3
   5  -7  16 36.0902 48.3935   3
   5  -7  17 1235.17 203.067   3
   5  -7  18 95.0261 43.6304   3
   5  -7  19 929.161 173.649   3
   5  -7  20-58.4269 55.0700   3
  -5  -8  21 15.4173 61.8448   3
   5   8 -20 165.050 89.9720   2
  -5  -8  20 22.6867 40.8791   3
   5   8 -19 68.9861 72.2905   2
  -5  -8  19-44.6052 63.0617   3
  -5  -8  18 89.8569 64.2168   3
   5   8 -18 62.0520 44.5486   2
  -5  -8  17 318.490 106.303   3
   5   8 -17 291.253 103.870   2
  -5  -8  16 4.56176 36.2771   3
   5   8 -16 50.1306 47.8905   2
  -5  -8  15 105.987 56.2922   3
   5   8 -15-7.39556 39.2219   2
  -5  -8  14 39.3804 32.7440   3
   5   8 -14 73.2073 54.7756   2
   5   8 -13-32.2125 42.9530   2
  -5  -8  13-96.2142 63.8178   3
   5   8 -12 61.9266 38.6301   2
  -5  -8  12 30.5382 40.0548   3
   5   8 -11 110.157 55.8718   2
   5  -8 -11 26.2274 21.9097   1
  -5  -8  11 127.277 56.2134   3
   5  -8 -10 1240.35 119.162   1
   5   8 -10 1366.96 176.812   2
  -5  -8  10 1346.96 159.620   3
   5  -8  -9 253.079 29.2605   2
  -5  -8   9 265.063 71.9623   3
   5   8  -9 350.843 91.4230   2
   5   8  -8 21.9490 39.3161   2
  -5  -8   8 120.172 43.8417   3
   5   8  -7-40.1132 38.5862   2
  -5  -8   7-23.9682 27.3309   3
  -5  -8   6 7.80716 21.1617   3
   5   8  -6-7.52816 25.1790   2
   5   8  -5 135.360 55.3837   2
  -5  -8   5 271.909 58.3974   3
  -5  -8   5 276.776 78.3976   2
  -5  -8   4 51.8877 31.1854   3
   5   8  -4 29.4628 22.4704   2
  -5  -8   4 44.3850 36.2540   2
  -5  -8   3 815.973 125.158   2
   5   8  -3 851.552 125.629   2
  -5  -8   3 934.726 91.9304   3
  -5  -8   2 4596.52 296.017   2
   5   8  -2 5395.00 272.893   1
  -5  -8   2 4797.52 193.456   3
   5   8  -2 4169.23 261.860   2
   5   8  -1 660.051 105.338   2
  -5  -8   1 644.668 111.043   2
  -5  -8   1 684.947 68.3432   3
   5   8  -1 648.230 97.3087   1
   5   8   0 1218.99 141.216   2
  -5  -8   0 1299.95 152.846   2
  -5   8   0 1347.73 106.068   1
  -5  -8   0 1345.60 86.7854   3
   5   8   0 1222.93 129.941   1
  -5   8  -1 1452.22 69.9240   2
  -5   8  -1 1462.56 109.726   1
  -5  -8  -1 1397.45 156.915   2
   5   8   1 1319.13 138.337   2
  -5  -8  -1 1353.37 77.7555   3
   5   8   1 1420.93 145.288   1
  -5   8  -2 97.0044 24.1518   2
   5   8   2 132.110 58.8218   1
  -5  -8  -2 54.1232 15.1613   3
  -5   8  -2 80.4046 29.3354   1
  -5  -8  -2 91.4875 37.6767   2
   5   8   2 61.7985 35.1017   2
  -5  -8  -3 71.0640 17.4987   3
   5   8   3 106.658 43.6581   1
  -5   8  -3 112.932 31.7597   1
  -5   8  -3 88.9347 26.1211   2
  -5  -8  -3 80.4021 40.2719   2
   5   8   3 100.735 42.5094   2
  -5  -8  -4 124.430 20.1288   3
   5   8   4 104.241 52.3470   1
   5   8   4 184.928 51.1802   2
   5  -8   4 204.484 69.5465   3
  -5   8  -4 129.141 34.3752   2
  -5  -8  -4 79.5567 39.0885   2
   5  -8   5 453.683 104.004   3
  -5  -8  -5 428.427 38.2550   3
  -5   8  -5 425.762 67.4797   2
  -5  -8  -5 516.411 41.9672   3
  -5  -8  -5 410.478 85.1782   2
   5   8   5 405.122 74.6469   2
   5   8   6-6.64191 23.5369   2
  -5  -8  -6 14.0978 9.47950   3
  -5  -8  -6 3.77761 28.3584   2
   5   8   7 81.2916 44.8299   2
  -5  -8  -7 47.7364 14.4817   3
   5  -8   7 100.207 57.8379   3
  -5  -8  -7-16.4858 30.0362   2
  -5  -8  -8 208.944 63.7074   2
   5  -8   8 313.011 87.4781   3
  -5   8  -8 353.606 77.3583   2
  -5  -8  -8 313.112 42.3632   3
  -5   8  -9 228.368 65.7096   2
   5  -8   9 322.113 86.9007   3
  -5   8 -10 842.168 122.777   2
   5  -8  10 797.457 139.586   3
  -5   8 -11 38.8003 41.0317   2
   5  -8  11 158.405 71.1239   3
  -5   8 -12 575.032 108.552   2
   5  -8  12 798.939 148.123   3
  -5   8 -13 78.5586 52.4139   2
   5  -8  13 186.508 81.7187   3
  -5   8 -14 1059.80 155.733   2
   5  -8  14 1364.60 198.012   3
   5  -8  15 4.37919 32.9894   3
  -5   8 -15-19.9213 34.4948   2
   5  -8  16 24.8819 50.7907   3
  -5   8 -16 13.3550 31.9789   2
  -5   8 -17 35.0903 46.2082   2
   5  -8  17-57.3649 62.9848   3
  -5   8 -18 129.287 66.9404   2
   5  -8  18 184.715 87.5937   3
  -5   8 -19 1.40674 40.9428   2
  -5   8 -20 177.833 78.9114   2
  -5   8 -21-93.8057 61.3887   2
  -5  -9  20-130.232 76.7786   3
  -5  -9  19 6.18527 43.2077   3
  -5  -9  18 37.8159 54.2821   3
   5   9 -18 27.4535 37.7855   2
  -5  -9  17 30.2378 34.8476   3
   5   9 -17-23.8766 55.7128   2
  -5  -9  16 305.169 102.112   3
   5   9 -16 235.333 89.8703   2
  -5  -9  15 102.569 62.5169   3
   5   9 -15 29.8131 36.7344   2
  -5  -9  14 69.9384 61.5176   3
   5   9 -14 64.5266 43.0861   2
   5   9 -13 270.773 89.9454   2
  -5  -9  13 380.647 101.487   3
   5   9 -12 118.304 71.4352   2
  -5  -9  12 67.2695 44.5167   3
  -5  -9  11 16.8067 29.2530   3
   5   9 -11 64.8811 58.1213   2
   5   9 -10 81.3481 43.3463   2
  -5  -9  10 17.0672 32.7854   3
   5   9  -9 40.9157 37.5474   2
  -5  -9   9-18.3983 36.2562   3
  -5  -9   8 428.684 84.4349   3
   5   9  -8 460.340 99.0244   2
  -5  -9   7 89.4500 42.5803   3
   5   9  -7 43.6179 37.4679   2
   5   9  -6 63.5770 41.0236   2
  -5  -9   6 52.1644 34.7739   3
   5   9  -5 194.086 61.0143   2
  -5  -9   5 68.7216 27.5615   3
   5   9  -4 8.52565 23.6078   2
  -5  -9   4 47.0674 28.8393   3
   5   9  -3 59.3817 40.9010   1
   5   9  -3 81.0309 45.2304   2
  -5  -9   3 24.4148 21.6353   3
  -5  -9   2 1501.30 177.114   2
   5   9  -2 1891.86 171.993   1
  -5  -9   2 1705.08 122.340   3
   5   9  -2 1596.81 171.365   2
   5   9  -1 154.375 57.6942   2
  -5  -9   1 145.741 37.3769   3
  -5  -9   1 15.3066 33.5813   2
   5   9  -1 80.2099 36.8422   1
   5   9   0 808.280 118.099   2
   5   9   0 819.138 114.547   1
  -5  -9   0 802.461 129.045   2
  -5   9   0 850.674 94.1673   1
  -5  -9   0 826.216 73.0568   3
  -5  -9  -1 1045.08 145.683   2
  -5   9  -1 1138.27 49.7383   2
  -5   9  -1 1140.00 109.498   1
   5   9   1 1127.31 137.172   2
   5   9   1 1211.89 141.496   1
  -5  -9  -2 260.701 38.7977   3
  -5   9  -2 246.315 35.3541   2
   5   9   2 240.924 61.5753   2
  -5  -9  -2 209.569 67.8190   2
   5   9   2 234.252 63.4531   1
  -5   9  -2 273.559 53.6388   1
  -5  -9  -3 518.161 101.896   2
   5  -9   3 794.356 131.682   3
  -5  -9  -3 547.688 51.4170   3
   5   9   3 702.439 117.085   1
   5   9   3 791.607 109.692   2
  -5  -9  -3 697.554 50.1514   3
  -5   9  -3 862.849 89.3280   1
  -5   9  -3 842.707 77.5702   2
   5   9   4 110.386 55.0960   1
   5   9   4 35.6463 36.9294   2
  -5  -9  -4 43.9132 31.9083   2
   5  -9   4 41.0103 32.3078   3
  -5   9  -4 108.453 36.7368   1
  -5   9  -4 31.2448 17.7375   2
  -5  -9  -5 10.9791 16.5260   2
   5   9   5 102.561 40.1149   2
   5  -9   5 159.474 67.0490   3
  -5   9  -5 46.3598 24.9874   2
   5   9   6 206.483 58.0735   2
  -5  -9  -6 136.740 55.5613   2
   5  -9   6 158.166 62.1880   3
   5  -9   7-24.1830 48.4787   3
  -5   9  -8 1061.11 126.323   2
   5  -9   8 1059.27 163.663   3
  -5   9  -9 138.880 55.5395   2
   5  -9   9 119.220 63.0299   3
   5  -9  10-48.2189 50.1066   3
  -5   9 -10-85.1948 47.8173   2
   5  -9  11 128.885 65.5995   3
  -5   9 -11 44.2600 29.0296   2
  -5   9 -12 79.4299 48.4907   2
   5  -9  12-26.7814 45.2311   3
   5  -9  13 49.8747 56.9768   3
  -5   9 -13 66.3079 33.9268   2
  -5   9 -14 67.9530 44.6953   2
   5  -9  14 105.313 60.2069   3
  -5   9 -15 17.1156 38.7166   2
   5  -9  15-11.5888 44.8801   3
  -5   9 -16 19.9451 38.9470   2
   5  -9  16 152.232 80.5280   3
  -5   9 -17 4.67681 56.0004   2
   5  -9  17 46.7859 62.8724   3
  -5   9 -18-80.4538 53.3932   2
  -5   9 -19-49.5164 47.8134   2
  -5   9 -20 72.2402 58.5975   2
  -5 -10  18-46.3249 49.8163   3
  -5 -10  17 53.5189 63.6919   3
   5  10 -17 0.33587 39.4321   2
  -5 -10  16-56.4319 50.6059   3
   5  10 -16-50.3583 47.9930   2
  -5 -10  15 71.0333 46.3993   3
   5  10 -15-16.5627 36.2485   2
  -5 -10  14 7.44548 34.6478   3
   5  10 -14 16.3607 47.2126   2
  -5 -10  13-25.8613 41.1470   3
   5  10 -13-53.3591 47.5851   2
   5  10 -12 67.5707 58.1572   2
  -5 -10  12 39.2111 46.0863   3
  -5 -10  11 30.4100 37.2947   3
   5  10 -11 36.3940 45.0083   2
  -5 -10  10 88.6178 44.4174   3
   5  10 -10 19.5078 24.5024   2
  -5 -10   9 79.1339 45.6505   3
   5  10  -9 73.8693 51.3057   2
   5  10  -8 20.5718 24.5525   2
  -5 -10   8 75.7477 42.2543   3
   5  10  -7 494.273 111.681   2
  -5 -10   7 363.914 77.4734   3
   5  10  -6 151.398 61.6547   2
  -5 -10   6 108.145 41.2258   3
   5  10  -5 197.154 66.5939   2
  -5 -10   5 153.600 49.5565   3
   5  10  -4 12.1782 35.4702   1
   5  10  -4-8.34955 34.1663   2
  -5 -10   4 5.53995 18.2363   3
   5  10  -3 48.6774 44.4343   1
   5  10  -3 3.71515 21.5490   2
  -5 -10   3 32.9997 13.7431   3
   5  10  -2 512.794 102.633   2
   5  10  -2 570.516 101.675   1
   5  10  -1-22.6512 42.9504   1
   5  10  -1-50.4051 47.5786   2
   5  10   0 1496.39 163.750   2
   5  10   0 1453.83 165.517   1
   5  10   1 30.7268 39.6126   2
   5  10   1 21.8108 39.8761   1
  -5  10  -1-14.3927 29.4538   1
   5  10   2 799.738 127.061   1
   5  10   2 980.022 130.636   2
   5 -10   2 927.100 149.715   3
  -5  10  -2 829.056 98.4512   1
   5  10   3 24.2611 26.1496   1
   5  10   3 31.7755 31.6889   2
   5 -10   3-0.68389 37.3938   3
  -5  10  -3 18.9748 21.0554   1
   5  10   4 2.52372 18.2336   2
   5 -10   4 79.2766 59.5387   3
   5  10   4 20.3639 43.2985   1
  -5  10  -4 46.6588 26.7864   1
  -5  10  -5 244.117 51.8200   2
   5  10   5 114.870 46.4989   2
  -5  10  -5 244.811 53.1628   1
   5 -10   5 87.0424 57.0212   3
   5  10   6 125.943 47.2877   2
   5 -10   6 207.820 79.1246   3
  -5  10  -6 249.164 55.9168   1
   5 -10   7 67.8506 29.4717   3
  -5  10  -7 60.5162 35.2225   2
  -5  10  -8 74.6754 40.2287   2
   5 -10   8 78.2666 45.2002   3
   5 -10   9 36.6174 35.2111   3
  -5  10  -9-13.6538 31.2590   2
  -5  10 -10 13.4744 39.7861   2
   5 -10  10 1.68964 36.9748   3
   5 -10  11-15.6462 39.9375   3
  -5  10 -11-36.3027 44.9461   2
  -5  10 -12 80.9544 46.9501   2
   5 -10  12 33.3973 42.0195   3
  -5  10 -13 14.0335 23.3494   2
   5 -10  13 41.3297 33.5216   3
   5 -10  14-138.812 73.0229   3
  -5  10 -14 92.8461 59.1629   2
  -5  10 -15 163.490 74.1446   2
   5 -10  15 152.762 84.1504   3
  -5  10 -16 10.1719 50.4710   2
  -5  10 -17 50.1965 38.9900   2
   5  11 -15 73.9470 70.0111   2
   5  11 -14-0.31548 38.5248   2
   5  11 -13 87.1869 61.1388   2
   5  11 -12-25.7359 50.2116   2
   5  11 -11 276.937 96.5200   2
   5  11 -10 80.4436 49.0383   2
   5  11  -9 68.6288 58.7483   2
   5  11  -8-33.5952 34.1493   2
   5  11  -7-94.4887 52.9310   2
   5  11  -6 1.64049 20.0982   2
   5  11  -6-0.99925 26.4757   1
   5  11  -5 125.276 59.1020   2
   5  11  -5 31.2808 33.2971   1
   5  11  -4 71.0283 41.7344   2
   5  11  -4 147.984 60.3771   1
   5  11  -3 48.7035 43.3840   1
   5  11  -3-54.1382 42.8947   2
   5  11  -2 351.208 86.2674   1
   5  11  -2 444.095 97.3038   2
   5  11  -1 518.947 106.339   1
   5  11  -1 550.285 103.622   2
   5  11   0 555.661 105.456   2
   5  11   0 540.854 107.235   1
   5 -11   1 62.7282 47.6276   3
   5  11   1 47.4894 40.0578   1
   5  11   1 72.2178 40.1825   2
   5  11   2 15.9132 27.7703   2
   5  11   2-41.6575 39.0469   1
   5 -11   2-18.4622 35.0984   3
   5 -11   3 47.9859 34.5212   3
   5  11   3-2.23076 18.0606   2
   5  11   3-20.3855 45.4570   1
   5  11   4 133.354 50.7140   2
   5 -11   4 98.3466 61.2257   3
   5  11   5 182.244 56.4782   2
   5 -11   5 271.774 92.4780   3
   5 -11   6-51.6738 43.8256   3
   5 -11   7 165.075 78.7521   3
   5 -11   8 199.568 83.4187   3
   5 -11   9 341.158 102.847   3
   5 -11  10 14.7867 36.2366   3
   5 -11  11-42.3690 57.6222   3
   5 -11  12-21.2757 42.1806   3
   5 -11  13 97.4797 65.3718   3
   5  12 -13 17.3668 43.4874   2
   5  12 -12 128.976 69.5613   2
   5  12 -11 1.19012 24.0178   2
   5  12 -10 43.3561 49.2595   2
   5  12  -9-21.9513 58.4974   2
   5  12  -8-115.440 60.1729   2
   5  12  -7 71.2660 38.0830   2
   5  12  -7 15.3278 23.6047   1
   5  12  -6 38.3648 45.0420   1
   5  12  -6-2.48850 24.9534   2
   5  12  -5 37.4473 34.5109   1
   5  12  -5 14.7805 30.2122   2
   5  12  -4 188.074 69.4680   2
   5  12  -4 156.106 64.6230   1
   5  12  -3-17.1260 37.6650   2
   5  12  -3-4.23580 26.4820   1
   5  12  -2-20.5970 32.5718   2
   5  12  -2-26.2131 40.9453   1
   5 -12  -1 99.7646 57.4271   3
   5  12  -1 48.5675 37.8297   1
   5  12  -1 12.6490 26.2203   2
   5  12   0 84.9645 56.2533   1
   5 -12   0 43.1240 40.9358   3
   5  12   1 75.2217 39.6739   1
   5 -12   1 164.652 71.1550   3
   5 -12   2 40.5858 36.6072   3
   5  12   2-48.3407 54.7798   1
   5 -12   3 56.4664 46.9404   3
   5 -12   4-10.3676 46.6248   3
   5 -12   5-186.402 76.9421   3
   5 -12   6-33.7272 40.7836   3
   5 -12   7-141.227 71.2205   3
   5 -12   8-152.557 74.0136   3
   5 -12   9-12.1886 33.0379   3
   5 -12  10 2.57485 40.4647   3
   5  13  -2 15.9877 39.5136   1
   5  13  -1 155.684 71.1837   1
   5  13   0 50.8955 59.8660   1
   6   0 -25 25.9859 27.6518   2
   6   0 -24 332.611 94.9389   2
   6   0 -23 94.5634 67.5330   2
   6   0 -22 36.9982 32.1718   2
  -6   0  20 221.263 78.9345   3
  -6   0  19 25.9414 52.2436   3
  -6   0  18 658.987 143.615   3
  -6   0  17-37.9703 43.2911   3
  -6   0  16 158.302 74.0568   3
  -6   0  15-52.0266 47.6005   3
  -6   0  14 36.4782 43.0640   3
   6   0 -14-47.2356 46.2435   3
   6   0 -14 39.0725 37.6823   2
  -6   0  13-32.0443 43.7132   3
   6   0 -13 46.1628 55.1826   2
   6   0 -13 48.5247 35.4519   3
   6   0 -12 1948.03 180.170   3
   6   0 -12 2161.48 181.140   2
   6   0 -11 47.4430 33.3119   3
   6   0 -11 27.5081 28.0720   2
   6   0 -10 1209.31 131.846   3
   6   0 -10 1090.72 117.312   2
   6   0  -9 27.1871 32.9740   3
   6   0  -9 10.2189 31.6949   2
   6   0  -8 24.8607 31.4088   2
   6   0  -8 3.10381 24.0015   3
   6   0  -7 48.3428 38.4523   2
   6   0  -7-21.4886 19.8036   3
   6   0  -6 371.175 75.1059   3
   6   0  -6 502.831 74.7421   2
   6   0  -5 70.3333 35.4738   2
  -6   0   5-17.0145 24.3456   2
  -6   0   4 7017.40 226.834   2
   6   0  -4 6937.95 221.511   2
  -6   0   3-1.51156 15.3716   2
   6   0  -3-17.3678 23.3998   2
  -6   0   2 3988.10 158.505   2
   6   0  -2 4113.07 159.454   2
   6   0  -1-22.3065 23.0602   2
  -6   0   1-28.3470 19.7864   2
  -6   0   0 280.027 44.1355   2
   6   0   0 363.524 37.0376   1
   6   0   0 266.895 46.1246   2
  -6   0  -1-26.0773 21.4301   2
   6   0   1 2.30236 11.2033   1
   6   0   1-10.7173 19.6536   2
  -6   0  -2 28253.1 435.747   2
   6   0   2 27288.1 409.070   2
  -6   0  -2 28402.9 316.707   1
   6   0   3-23.2320 24.0919   2
  -6   0  -3-10.3043 14.0910   1
  -6   0  -3-1.86653 11.8234   2
   6   0   4 61308.7 664.931   3
  -6   0  -4 59711.3 671.167   2
  -6   0  -4 60603.8 566.255   1
  -6   0  -5-42.3933 26.9452   2
   6   0   5 8.00559 24.9485   3
   6   0   6 30032.1 515.126   3
  -6   0  -6 30108.2 516.143   2
  -6   0  -7-22.2470 22.6840   2
   6   0   7 28.4164 30.6089   3
   6   0   8 27257.3 543.357   3
  -6   0  -8 27809.1 559.736   3
  -6   0  -8 29218.7 552.168   2
  -6   0  -9 18.0866 23.5655   3
  -6   0  -9 29.4683 22.8876   2
  -6   0 -10 488.732 83.6536   3
   6   0  11 31.9855 35.8009   3
  -6   0 -11 2.55627 21.1801   3
  -6   0 -12 797.673 115.250   3
   6   0  12 1207.09 140.373   3
  -6   0 -13-12.9389 28.5919   3
   6   0  13-26.8214 35.6731   3
  -6   0 -14 1510.19 168.425   3
   6   0  14 1553.78 167.698   3
   6   0  15 8.61138 41.8443   3
   6   0  16-19.9256 32.3490   3
   6   0  17 89.1169 50.4907   3
   6   0  18 728.339 140.385   3
   6   0  19-60.2239 58.6021   3
   6   0  20-88.2399 66.3781   3
   6   0  21-22.7835 35.9827   3
   6   0  22-30.7203 60.6932   3
   6   0  23 66.0345 61.8912   3
   6   0  24 174.205 98.0371   3
   6   0  25-51.2258 56.5710   3
   6  -1 -26 9.03940 29.9420   2
  -6  -1  25-19.3295 56.3899   3
   6  -1 -25 3.07462 31.8938   2
   6   1 -25-140.886 74.3522   2
  -6  -1  24 103.531 62.5961   3
   6   1 -24 4.98485 48.1502   2
   6   1 -23 77.4275 48.1811   2
  -6  -1  23-0.79437 51.7236   3
  -6  -1  22 46.2972 51.3796   3
   6   1 -22-14.7181 45.0848   2
  -6  -1  21 39.6206 47.2402   3
   6   1 -21-5.10166 40.1213   2
  -6  -1  20 109.520 64.3942   3
   6   1 -20 36.4034 27.7016   2
  -6  -1  19 405.102 114.303   3
   6   1 -19 404.891 101.430   2
  -6  -1  18-39.2691 60.5480   3
   6   1 -18 7.64287 40.7711   2
  -6  -1  17 3595.66 317.223   3
   6   1 -17 3401.13 270.487   2
  -6  -1  16 861.184 152.267   3
   6   1 -16 959.005 140.777   2
  -6  -1  15 54.4675 33.5859   3
   6   1 -15 55.0691 47.0905   2
  -6  -1  14 2494.41 236.690   3
   6   1 -14 2583.54 212.457   2
   6  -1 -14 2475.25 221.234   3
   6   1 -14 2622.36 219.409   3
   6   1 -13 475.147 89.9847   3
   6  -1 -13 512.192 101.463   3
   6   1 -13 482.984 94.4500   2
  -6  -1  13 507.364 108.194   3
   6  -1 -12 53.8855 41.0101   3
  -6  -1  12-20.6200 44.6928   3
   6   1 -12 61.8007 45.5496   2
   6   1 -12 72.6851 44.0939   3
  -6  -1  11 241.885 71.8825   3
   6  -1 -11 219.121 57.2514   2
   6   1 -11 266.327 68.2766   2
   6  -1 -11 329.673 77.2872   3
   6   1 -11 244.409 58.9312   3
   6  -1 -10 51.8325 38.9177   3
  -6  -1  10 61.1055 48.4894   3
   6  -1 -10 25.4082 27.2184   2
   6   1 -10 37.9776 34.6795   2
   6   1 -10 40.3651 25.7046   3
   6   1  -9 190.403 46.1820   3
   6  -1  -9 230.336 58.3233   3
  -6  -1   9 257.741 68.4862   3
   6  -1  -9 278.713 56.1429   2
   6   1  -8 285.222 60.0995   3
  -6  -1   8 244.817 63.8540   3
   6  -1  -8 203.513 49.2555   2
   6   1  -8 298.492 66.8996   2
   6  -1  -8 242.333 65.2135   3
   6   1  -7 121.833 39.5892   3
   6  -1  -7 139.059 43.6746   3
   6  -1  -7 102.837 39.2752   2
   6   1  -7 141.546 44.6881   2
   6   1  -6 4167.94 204.860   3
  -6  -1   6 4004.01 201.160   2
   6  -1  -6 4223.93 178.791   2
   6   1  -6 4110.71 199.812   2
   6   1  -5 88.6822 32.8510   3
  -6  -1   5 103.498 34.2591   2
   6  -1  -5 96.7704 29.3547   2
   6   1  -5 147.071 42.3565   2
   6   1  -4 10.8814 21.3049   2
  -6   1   4 19.8733 16.2100   2
  -6  -1   4 15.2578 22.4376   2
   6  -1  -4 13.2266 16.2572   2
   6   1  -4 15.6055 20.1248   3
  -6   1   3 4309.75 153.885   2
  -6  -1   3 4526.34 192.965   2
   6   1  -3 4337.88 184.281   2
   6  -1  -3 4430.09 154.047   2
  -6   1   2 4777.98 155.648   2
  -6  -1   2 4883.25 193.193   2
   6   1  -2 4702.99 188.799   2
   6  -1  -2 4909.87 155.164   2
  -6  -1   1 21247.4 396.238   2
  -6   1   1 21199.8 324.614   2
   6   1  -1 20936.8 393.293   2
   6  -1  -1 21729.3 318.875   2
   6  -1   0 7808.11 190.035   2
   6  -1   0 8288.75 120.075   1
  -6  -1   0 7234.93 235.132   2
  -6   1   0 7356.83 194.690   2
  -6   1  -1 83271.8 674.693   2
   6  -1   1 86079.9 641.089   2
   6   1   1 88519.2 610.684   1
  -6  -1  -1 86813.6 814.853   2
   6   1   2 6179.62 179.490   1
  -6   1  -2 6985.84 199.608   2
  -6  -1  -2 6816.43 231.763   2
  -6  -1  -2 7563.00 189.061   1
  -6   1  -2 6733.88 135.284   1
   6  -1   2 6860.66 184.966   2
  -6  -1  -3 420.769 57.6852   2
  -6  -1  -3 329.286 40.5111   1
  -6   1  -3 348.953 45.1870   2
   6   1   3 339.939 43.5371   3
  -6   1  -4 9233.86 247.106   2
  -6  -1  -4 8881.52 231.319   1
   6   1   4 8953.00 228.260   3
  -6  -1  -4 9295.55 283.844   2
   6   1   5 14170.8 311.142   3
  -6  -1  -5 14403.6 358.202   2
   6  -1   5 14259.6 364.241   3
  -6  -1  -5 13680.9 304.533   1
  -6   1  -5 14334.0 326.823   2
  -6  -1  -6 556.873 74.8212   2
   6  -1   6 566.563 78.4598   3
   6   1   6 438.285 60.2039   3
  -6  -1  -6 445.968 60.0719   1
  -6   1  -6 506.871 66.0633   2
  -6  -1  -7 8576.57 277.446   3
  -6  -1  -7 8336.49 291.854   2
   6   1   7 8266.79 265.484   3
   6  -1   7 8467.81 307.854   3
  -6  -1  -8 21.8756 24.2948   3
  -6  -1  -8 29.4650 21.6243   2
   6   1   8 17.6248 23.5765   3
   6   1   9 13.6480 23.5098   3
  -6  -1  -9 5.14415 16.4882   2
  -6  -1  -9 34.0399 18.0447   3
  -6   1 -10 8.13768 19.3886   3
   6  -1  10 49.4078 31.2798   3
  -6  -1 -10 53.8919 28.8237   2
  -6  -1 -10 41.9417 21.8266   3
  -6   1 -11 113.810 45.1691   3
  -6  -1 -11 50.7897 28.5515   3
  -6  -1 -11 7.25012 17.0796   2
   6  -1  11 38.7498 28.9204   3
  -6  -1 -12 136.206 47.6580   3
  -6   1 -12 196.478 55.8642   3
  -6  -1 -12 130.254 44.3698   2
   6  -1  12 129.855 53.3597   3
   6   1  12 192.679 56.1950   3
  -6  -1 -13 2132.95 195.889   2
  -6   1 -13 2392.18 208.512   3
   6  -1  13 2524.18 210.958   3
   6   1  13 2367.24 192.002   3
  -6  -1 -13 2607.40 206.810   3
  -6   1 -14 437.449 90.7834   3
  -6  -1 -14 442.866 90.7788   3
   6   1  14 478.766 89.1166   3
   6  -1  14 366.844 81.7819   3
  -6  -1 -15 975.423 136.127   3
   6   1  15 1113.33 144.666   3
   6  -1  15 1065.66 145.583   3
   6  -1  16 52.8058 46.4421   3
   6   1  16 45.5312 37.1699   3
   6  -1  17 12.1969 35.3840   3
   6   1  17 68.4639 52.9069   3
   6   1  18 300.702 88.4229   3
   6  -1  18 302.967 90.9666   3
   6   1  19 103.136 55.9327   3
   6  -1  19 84.4116 58.5099   3
   6   1  20 3.04315 38.6746   3
   6  -1  20 31.2754 40.9821   3
   6   1  21 158.217 83.6204   3
   6  -1  21 7.39332 41.4783   3
   6  -1  22 299.051 109.814   3
   6   1  22 282.416 101.935   3
   6  -1  23-142.838 104.081   3
   6   1  23-46.7206 57.2779   3
   6  -1  24 52.3414 45.6053   3
   6   1  24 62.7655 71.0961   3
   6   1  25 6.74007 37.6773   3
   6   2 -25 43.0213 51.8192   2
  -6  -2  24 65.0758 95.0623   3
   6   2 -24 34.1666 50.9772   2
  -6  -2  23 48.7391 66.0713   3
   6   2 -23-37.4194 52.7491   2
  -6  -2  22 83.6341 62.9971   3
   6   2 -22 25.2134 44.9622   2
  -6  -2  21 393.141 123.510   3
   6   2 -21 209.420 75.1675   2
   6   2 -20 42.6622 45.4370   2
  -6  -2  20-65.7615 73.3980   3
  -6  -2  19 244.841 98.6865   3
   6   2 -19 10.1782 41.1426   2
  -6  -2  18 34.2462 42.3634   3
   6   2 -18 109.806 64.7338   2
  -6  -2  17 309.445 100.959   3
   6   2 -17 355.090 101.822   2
  -6  -2  16 4.45462 33.1820   3
   6   2 -16-44.3938 53.8296   2
  -6  -2  15 512.035 112.001   3
   6   2 -15 506.234 104.108   2
   6   2 -14 4165.76 283.274   2
   6   2 -14 4155.52 277.493   3
  -6  -2  14 4567.33 319.309   3
   6   2 -13 1455.15 163.306   2
   6  -2 -13 1469.30 171.677   3
   6   2 -13 1448.40 156.956   3
  -6  -2  13 1289.48 163.594   3
   6   2 -12 14.8918 39.1904   3
  -6  -2  12-41.5012 50.1623   3
   6   2 -12-25.3822 36.7593   2
   6  -2 -12 2.04063 16.5320   3
   6  -2 -11 116.800 52.5482   3
  -6  -2  11 72.2097 38.7453   3
   6   2 -11 154.473 49.5773   3
  -6  -2  10 234.671 60.6663   3
   6  -2 -10 303.858 74.0987   3
   6   2 -10 299.699 63.0674   3
   6  -2  -9 230.483 59.7863   3
   6  -2  -9 225.001 48.6849   2
  -6  -2   9 233.764 65.8241   3
   6   2  -9 234.075 53.8393   3
   6  -2  -8 23323.7 613.278   3
   6  -2  -8 22373.4 428.550   2
  -6  -2   8 22363.1 538.379   3
   6   2  -8 21804.0 491.444   3
  -6  -2   7 273.134 58.6908   3
  -6  -2   7 306.837 62.4581   2
   6  -2  -7 242.379 42.1648   2
   6   2  -7 235.033 49.9931   3
  -6  -2   6 11292.6 342.256   3
  -6  -2   6 11175.7 358.014   2
   6  -2  -6 11504.5 268.817   2
   6   2  -6 11075.6 316.944   3
  -6  -2   5 793.728 84.1271   3
   6  -2  -5 786.865 65.8546   2
  -6  -2   5 866.460 95.2095   2
   6   2  -5 817.367 80.8096   3
  -6  -2   4 11797.7 351.340   2
   6  -2  -4 12444.7 236.572   2
   6   2  -4 11833.8 285.164   3
  -6   2   3 1227.01 71.9959   2
  -6  -2   3 1266.86 114.430   2
   6   2  -3 1233.70 85.2931   3
   6  -2  -3 1221.39 68.6776   2
   6   2  -2 328.112 40.7604   3
  -6   2   2 311.420 34.7267   2
  -6  -2   2 274.651 51.9354   2
   6  -2  -2 293.982 32.4466   2
   6  -2  -1 1982.95 80.3567   2
  -6   2   1 1872.11 83.1672   2
   6   2  -1 1953.53 92.5656   3
  -6  -2   1 1980.75 132.757   2
  -6  -2   0 69.8354 24.3039   2
   6  -2   0 52.2341 14.6181   2
  -6   2   0 48.9711 14.1195   2
   6   2   1-12.1026 20.2193   1
  -6  -2  -1 43.9526 27.2935   2
  -6   2  -1 8.64870 15.1704   2
   6   2   2 1836.62 105.146   1
  -6   2  -2 1657.13 91.5148   2
   6   2   2 1765.47 72.2793   3
  -6  -2  -2 1662.36 123.966   2
   6   2   3 271.665 44.2714   1
  -6   2  -3 298.099 41.4828   2
  -6  -2  -3 300.471 45.1951   1
  -6  -2  -3 231.495 45.9221   2
   6   2   3 311.569 34.3422   3
  -6  -2  -4 501.226 73.7373   2
  -6   2  -4 487.092 54.9183   2
   6   2   4 499.085 45.0840   3
  -6  -2  -4 488.481 58.6275   1
   6   2   5 2419.87 112.524   3
  -6  -2  -5 2572.11 137.079   1
  -6  -2  -5 2563.81 162.546   2
  -6  -2  -6 99.3969 28.3776   3
   6   2   6 97.5328 27.1063   3
  -6  -2  -6 81.5385 34.8618   2
  -6  -2  -7 11630.7 354.443   2
  -6  -2  -7 10858.7 290.125   3
   6   2   7 11185.2 287.443   3
  -6  -2  -8-5.62885 18.3884   3
  -6  -2  -8-28.5225 26.5034   2
   6   2   8-15.5343 30.9320   3
  -6  -2  -9 64.7983 31.3419   2
  -6  -2  -9 78.4316 29.0053   3
   6   2   9 54.6745 27.7464   3
  -6  -2 -10 59.1123 31.3527   2
  -6  -2 -10 37.9211 21.7821   3
   6  -2  10-5.99600 31.6367   3
   6   2  10 77.6704 38.0542   3
  -6  -2 -11 12.4807 15.6645   2
   6  -2  11 34.4909 27.5048   3
  -6  -2 -11 18.1687 25.0982   3
  -6  -2 -12 1783.26 159.012   3
   6  -2  12 1648.96 170.278   3
  -6  -2 -12 1977.64 175.404   2
  -6  -2 -13 1685.87 161.362   3
   6  -2  13 1794.53 181.981   3
   6   2  13 1909.29 173.692   3
  -6  -2 -13 1909.66 179.523   2
  -6   2 -13 1613.57 176.288   3
  -6  -2 -14 933.580 126.940   3
   6  -2  14 1130.57 154.702   3
   6   2  14 955.722 129.441   3
   6   2  15 38.0844 27.7734   3
  -6  -2 -15 91.1484 45.8195   3
   6  -2  15 27.6973 41.7502   3
  -6  -2 -16-22.0951 19.3877   3
   6   2  16-16.4833 39.3804   3
   6  -2  16-5.90710 35.6471   3
   6   2  17 203.454 74.0351   3
   6  -2  17 203.712 71.2086   3
   6  -2  18 1913.33 224.615   3
   6   2  18 2208.14 229.328   3
   6   2  19 332.842 97.2387   3
   6  -2  19 45.4765 47.9124   3
   6   2  20 424.876 112.420   3
   6  -2  20 461.130 125.977   3
   6   2  21 92.3956 65.1981   3
   6  -2  21 153.389 67.1631   3
   6   2  22-35.3716 35.5308   3
   6  -2  22-11.7251 47.3303   3
   6   2  23 38.6792 53.7411   3
   6  -2  23 3.58551 35.2960   3
   6   2  24 71.1663 67.7198   3
   6  -2  24 101.400 78.0616   3
   6   2  25 26.0321 46.8490   3
  -6  -3  24 178.225 88.3041   3
   6   3 -24 342.660 112.469   2
  -6  -3  23 31.9502 49.5350   3
   6   3 -23 62.0737 46.6965   2
  -6  -3  22 90.0043 42.4984   3
   6   3 -22 91.9399 44.2603   2
  -6  -3  21-87.7922 64.9207   3
   6   3 -21-38.6500 38.9366   2
   6   3 -20 31.3622 54.4580   2
  -6  -3  20 56.3296 57.8097   3
  -6  -3  19-62.7821 74.6270   3
   6   3 -19-15.1379 55.2689   2
  -6  -3  18 7.46513 50.2634   3
   6   3 -18 44.8055 42.8939   2
  -6  -3  17-27.7872 54.6346   3
   6   3 -17 44.2714 47.8041   2
  -6  -3  16 487.128 118.679   3
   6   3 -16 593.354 119.915   2
  -6  -3  15 1248.03 171.175   3
   6   3 -15 1099.39 158.256   2
  -6  -3  14 105.767 47.3689   3
   6   3 -14 148.956 60.2485   2
   6   3 -14 153.407 58.3130   3
  -6  -3  13 381.745 90.4378   3
   6   3 -13 296.064 79.7355   2
   6  -3 -13 448.715 98.6078   3
   6   3 -13 348.778 80.6360   3
  -6  -3  12 549.993 100.798   3
   6  -3 -12 329.328 83.7010   3
   6   3 -12 524.279 103.512   2
   6   3 -12 481.352 89.2959   3
  -6  -3  11-1.48164 26.5473   3
   6   3 -11 36.0471 33.6181   2
   6  -3 -11-4.42076 26.6951   3
   6   3 -11-35.2219 28.2053   3
  -6  -3  10 336.224 76.8019   3
   6  -3 -10 279.336 75.5837   3
   6   3 -10 336.591 67.7727   3
  -6  -3   9 5829.28 288.881   3
   6  -3  -9 6147.46 335.486   3
   6   3  -9 5844.66 271.266   3
  -6  -3   8 118.769 37.7969   3
   6  -3  -8 194.161 39.1643   2
   6   3  -8 181.066 43.9667   3
  -6  -3   7 663.696 88.7058   3
   6  -3  -7 592.838 61.9837   2
  -6  -3   7 607.889 91.1549   2
   6   3  -7 581.807 75.1570   3
  -6  -3   6 139.274 41.8284   3
   6   3  -6 102.824 35.9663   3
  -6  -3   6 137.322 45.5791   2
   6  -3  -6 171.088 34.5904   2
  -6  -3   5 127.103 36.7458   3
  -6  -3   5 105.656 41.1769   2
   6  -3  -5 120.929 22.7509   2
   6   3  -5 73.9434 23.8397   3
  -6  -3   4 5.55066 16.3458   3
  -6  -3   4 5.90929 21.0336   2
   6  -3  -4 0.34721 7.44602   2
   6   3  -4 16.6564 18.5556   3
   6   3  -3 1963.17 99.4855   3
  -6  -3   3 1905.85 146.768   2
   6  -3  -3 1794.52 62.7013   2
  -6   3   2 120.946 17.8356   2
   6  -3  -2 133.141 15.1099   2
  -6  -3   2 164.557 44.4893   2
   6   3  -2 157.733 26.4957   3
  -6   3   1 1928.43 67.5507   2
  -6  -3   1 1992.16 143.761   2
   6   3  -1 2109.32 75.5266   3
  -6  -3   0 16437.5 411.080   2
  -6   3   0 15498.9 214.438   2
   6   3   1 5331.80 186.351   1
  -6  -3  -1 5636.95 239.833   2
   6   3   2 9381.76 292.477   2
  -6   3  -2 8791.11 193.831   2
   6   3   2 8913.20 252.861   1
  -6  -3  -2 9805.49 320.932   2
  -6  -3  -3 30.4313 22.5593   2
  -6   3  -3 13.7257 11.9904   2
   6   3   3 27.3020 21.6620   1
   6   3   3 25.2005 23.3919   2
   6   3   4 8985.16 282.877   1
   6   3   4 9239.43 167.086   3
  -6  -3  -4 9091.93 319.586   2
  -6  -3  -5 286.411 59.6419   2
   6   3   5 334.809 41.1974   3
  -6  -3  -6 4828.00 239.044   2
   6   3   6 4961.86 169.520   3
  -6  -3  -6 4856.65 161.211   3
  -6  -3  -7 4853.98 245.130   2
  -6  -3  -7 4800.12 181.143   3
   6   3   7 4956.97 185.625   3
  -6  -3  -8 968.854 110.766   2
  -6  -3  -8 823.402 81.8056   3
   6   3   8 832.163 84.3894   3
   6   3   9 94.3667 32.8211   3
  -6  -3  -9 159.536 42.3785   1
  -6  -3  -9 77.9396 28.0481   3
  -6  -3  -9 109.606 40.7439   2
   6   3  10 775.660 93.0821   3
  -6  -3 -10 660.432 84.1818   3
  -6  -3 -10 564.487 86.7650   1
  -6  -3 -10 845.799 107.894   2
   6  -3  10 723.341 109.592   3
   6  -3  11 1491.07 162.953   3
  -6  -3 -11 1786.03 163.570   2
  -6  -3 -11 1630.79 140.992   3
  -6  -3 -11 1500.58 145.070   1
  -6  -3 -12 585.370 87.8593   3
   6  -3  12 598.589 107.774   3
  -6  -3 -12 508.729 91.0955   2
   6   3  13 105.921 47.1618   3
   6  -3  13 48.3367 33.1771   3
  -6  -3 -13 57.0717 32.4666   3
   6   3  14 125.289 45.8222   3
  -6  -3 -14 78.7277 42.5303   3
   6  -3  14 191.832 69.3769   3
  -6  -3 -15 4112.03 269.383   3
   6  -3  15 4351.25 309.714   3
   6   3  15 4535.40 301.881   3
   6   3  16 399.223 95.2460   3
  -6  -3 -16 248.710 72.6095   3
   6  -3  16 388.386 100.827   3
   6   3  17 35.0754 34.8095   3
   6  -3  17 87.9163 60.2180   3
   6   3  18 119.067 57.7389   3
   6  -3  18 127.471 67.6871   3
   6   3  19 573.319 125.511   3
   6  -3  19 526.847 121.917   3
   6   3  20-22.9169 39.1686   3
   6  -3  20-56.9260 51.8775   3
   6   3  21 376.212 110.616   3
   6  -3  21 487.282 125.384   3
   6   3  22-53.4453 48.7443   3
   6  -3  22 34.0660 39.8979   3
   6   3  23 214.300 94.5817   3
   6  -3  23 107.860 60.7811   3
   6   3  24-38.8788 72.4433   3
   6   3  25-13.2773 41.3825   3
   6   3  26 13.3049 40.9731   3
  -6  -4  24-25.3975 60.0389   3
  -6  -4  23 51.8786 62.0896   3
   6   4 -23 85.2320 71.9893   2
  -6  -4  22-59.8068 60.4596   3
   6   4 -22 35.5497 35.3413   2
   6   4 -21-67.8449 46.0743   2
  -6  -4  21 23.9157 37.7741   3
  -6  -4  20 100.826 73.3752   3
   6   4 -20-7.72042 57.4652   2
  -6  -4  19-114.784 83.3285   3
   6   4 -19-40.3247 51.6523   2
  -6  -4  18 3.48319 40.3316   3
   6   4 -18 52.5762 60.7764   2
  -6  -4  17-65.5845 57.5778   3
   6   4 -17-20.5376 39.5854   2
   6   4 -16 2382.97 241.467   2
  -6  -4  16 1916.16 225.200   3
  -6  -4  15 319.727 91.3775   3
   6   4 -15 417.678 109.516   2
   6   4 -14 9117.30 455.189   2
  -6  -4  14 8448.35 436.055   3
  -6  -4  13-12.2940 37.0897   3
   6   4 -13-53.9015 41.2461   2
   6   4 -13-33.9080 37.8004   3
  -6  -4  12-44.5412 57.9473   3
   6  -4 -12 0.86560 21.9578   3
   6   4 -12 27.6138 43.3987   2
   6   4 -12 9.13134 24.4564   3
   6   4 -11 3247.37 252.464   2
   6  -4 -11 3219.43 259.764   3
   6   4 -11 3288.99 228.679   3
  -6  -4  11 3356.16 241.300   3
   6   4 -10 47.5765 31.3587   3
   6  -4 -10-42.2501 41.0117   3
   6   4 -10 52.2507 44.8073   2
  -6  -4  10 31.4271 33.2990   3
   6   4  -9 1725.02 173.517   2
   6   4  -9 1644.92 146.146   3
  -6  -4   9 1575.94 153.319   3
   6  -4  -8 2304.72 120.795   2
   6   4  -8 2230.87 187.084   2
   6   4  -8 2201.62 160.856   3
  -6  -4   8 2363.14 175.882   3
  -6  -4   7 612.258 83.6124   3
   6   4  -7 523.075 89.4209   2
   6  -4  -7 674.690 58.3070   2
  -6  -4   7 757.058 109.232   2
   6   4  -7 639.162 80.9024   3
   6  -4  -6 1358.44 72.5499   2
  -6  -4   6 1458.87 119.533   3
  -6  -4   6 1432.57 143.405   2
   6   4  -6 1412.01 114.105   3
  -6  -4   5 4316.70 242.811   2
   6  -4  -5 4034.83 96.5986   2
   6  -4  -5 4221.97 143.057   1
   6   4  -5 4124.33 178.261   3
  -6  -4   5 4130.07 189.818   3
  -6  -4   4 6087.18 283.997   2
   6   4  -4 5880.97 193.888   3
   6  -4  -4 5112.42 136.035   1
  -6  -4   4 5522.14 203.973   3
  -6  -4   3 3737.50 149.438   3
  -6  -4   3 3674.86 219.206   2
   6  -4  -3 3544.46 94.8884   1
   6   4  -3 3574.28 136.104   3
  -6  -4   2 702.308 57.1504   3
  -6  -4   2 672.652 94.2448   2
   6   4  -2 611.964 49.8723   3
  -6  -4   1 4693.30 238.111   2
  -6  -4   0 1601.94 137.825   2
  -6   4   0 1534.40 54.4377   2
   6   4   1 16790.6 361.852   1
  -6   4  -1 16423.3 220.983   2
  -6  -4  -1 17197.7 454.770   2
  -6  -4  -2 5350.51 253.733   2
  -6   4  -2 5425.10 145.062   2
   6   4   2 4887.04 202.999   1
  -6  -4  -3 35.5188 30.6092   2
   6   4   3 47.2641 21.2791   1
   6   4   4 363.567 59.4150   1
  -6  -4  -4 372.306 69.9978   2
  -6  -4  -5 125.557 36.0225   2
  -6  -4  -6 951.785 111.407   2
  -6  -4  -6 937.337 63.8955   3
  -6  -4  -7 1131.00 124.295   2
   6   4   7 1093.03 116.236   2
  -6  -4  -7 1259.46 85.4575   3
   6   4   7 1268.33 92.1390   3
   6  -4   8 43.1117 40.3914   3
  -6  -4  -8 57.7544 18.3563   3
  -6  -4  -8 75.3585 37.3482   2
   6   4   8 52.5786 24.2409   3
   6   4   9 237.586 53.4676   3
   6  -4   9 261.669 67.0177   3
  -6  -4  -9 199.766 55.8138   2
  -6  -4  -9 259.956 46.7699   3
  -6  -4  -9 245.718 52.4845   1
  -6  -4 -10 347.573 57.9366   3
   6   4  10 315.622 62.5190   3
  -6  -4 -10 361.099 70.5598   1
  -6  -4 -10 267.430 63.8334   2
   6  -4  10 383.870 88.0429   3
   6   4  11 45.8796 29.3604   3
  -6  -4 -11 51.4813 33.0833   2
   6  -4  11-5.70344 34.7971   3
  -6  -4 -11 31.1841 22.4904   3
  -6  -4 -12-24.6318 26.5060   3
   6  -4  12-3.08905 35.2993   3
  -6  -4 -13 193.089 53.0721   3
   6  -4  13 165.443 64.0733   3
   6   4  14 526.458 101.929   3
   6  -4  14 669.863 119.557   3
  -6  -4 -14 552.833 92.1693   3
   6   4  15 13.6901 29.1695   3
  -6  -4 -15 56.2827 36.6929   3
   6  -4  15-63.1069 58.7922   3
   6   4  16 31.2227 30.0378   3
  -6  -4 -16-50.6699 37.7030   3
   6  -4  16-8.77736 40.5824   3
   6   4  17 599.482 118.803   3
   6  -4  17 505.833 115.545   3
   6   4  18 948.049 157.234   3
   6  -4  18 806.719 155.774   3
   6   4  19 159.425 57.7605   3
   6  -4  19 152.052 72.1328   3
   6   4  20-6.11843 39.3819   3
   6  -4  20-12.6538 36.5822   3
   6   4  21 49.9567 47.1202   3
   6  -4  21 47.1200 41.2160   3
   6   4  22 277.924 102.109   3
   6  -4  22 412.971 120.301   3
   6   4  23 206.311 97.5924   3
   6   4  24 21.4296 32.7285   3
  -6  -5  23-72.1203 66.9258   3
  -6  -5  22 146.260 94.1987   3
   6   5 -22 123.059 87.7033   2
  -6  -5  21 342.258 116.308   3
   6   5 -21 17.9022 36.4733   2
  -6  -5  20 29.9534 45.9270   3
   6   5 -20-5.36296 53.0866   2
  -6  -5  19 271.591 96.5245   3
   6   5 -19 282.687 94.1105   2
   6   5 -18 174.422 75.1876   2
  -6  -5  18 76.4280 47.9201   3
  -6  -5  17 801.415 150.049   3
   6   5 -17 959.396 167.873   2
  -6  -5  16 502.238 117.002   3
   6   5 -16 542.707 123.173   2
  -6  -5  15 29.0332 34.1862   3
   6   5 -15 37.8954 43.1305   2
   6   5 -14 1781.90 211.714   2
  -6  -5  14 1818.34 203.436   3
  -6  -5  13 965.913 143.994   3
   6   5 -13 1120.99 164.764   2
   6   5 -13 885.297 133.487   3
  -6  -5  12 120.781 49.8961   3
   6   5 -12 218.158 76.8636   2
   6   5 -12 101.922 42.0303   3
   6  -5 -11-14.6622 35.8834   3
  -6  -5  11 25.8910 34.6683   3
   6   5 -11 26.9605 47.3309   2
   6   5 -11 1.97980 30.6173   3
   6   5 -10 1169.62 151.006   2
   6   5 -10 1305.68 142.528   3
  -6  -5  10 1150.27 136.802   3
  -6  -5   9-1.53991 22.9061   3
   6   5  -9 33.4639 32.7988   2
   6   5  -9 25.9918 20.7769   3
  -6  -5   8 154.836 50.4886   3
   6  -5  -8 164.649 30.2448   2
   6   5  -8 195.303 51.6139   3
   6   5  -8 149.663 52.9049   2
   6  -5  -8 145.708 37.7732   1
   6   5  -7 377.403 81.4563   2
   6  -5  -7 379.837 38.4761   2
   6  -5  -7 381.484 34.1359   2
  -6  -5   7 325.178 76.5489   2
  -6  -5   7 446.877 71.5799   3
   6   5  -7 366.369 66.4631   3
   6  -5  -7 383.077 54.3518   1
  -6  -5   6 1803.57 170.754   2
   6   5  -6 1642.91 124.698   3
   6  -5  -6 1418.44 92.8119   1
   6   5  -6 1604.76 157.764   2
  -6  -5   6 1758.63 133.836   3
   6  -5  -5 706.804 56.9362   1
  -6  -5   5 513.507 68.4456   3
   6   5  -5 689.627 75.2232   3
  -6  -5   5 713.733 105.812   2
   6   5  -5 674.719 97.8778   2
  -6  -5   4 1704.60 163.199   2
   6   5  -4 1507.50 144.450   2
   6   5  -4 1512.29 101.632   3
  -6  -5   4 1455.79 104.790   3
  -6  -5   3 864.818 115.328   2
  -6  -5   3 901.657 77.0516   3
  -6  -5   2 1976.12 165.102   2
  -6  -5   2 1984.90 96.6807   3
  -6  -5   1 3402.28 217.948   2
  -6  -5   1 3312.14 101.213   3
   6   5   0 499.627 70.8781   1
  -6   5   0 487.249 39.8608   1
  -6  -5   0 369.522 73.3073   2
   6   5   1 2837.37 161.738   1
  -6   5  -1 2616.06 80.3448   2
  -6   5  -1 2788.43 95.5517   2
  -6  -5  -1 2827.04 195.484   2
  -6   5  -1 2539.50 85.2719   1
  -6  -5  -2 841.802 108.014   2
   6   5   2 752.848 87.1497   1
  -6  -5  -3 409.023 77.4296   2
   6   5   3 312.961 58.4136   1
  -6  -5  -4 141.542 47.7079   2
   6   5   4 85.6108 33.7912   1
  -6  -5  -5 1167.44 127.924   2
   6   5   5 1315.64 127.319   1
   6   5   5 1070.13 112.945   2
  -6  -5  -6 102.466 28.2748   1
   6   5   6 94.8810 38.4806   2
   6  -5   6 48.4351 30.0064   3
  -6  -5  -6 55.0055 25.6095   2
  -6  -5  -6 90.7797 17.6764   3
  -6  -5  -7 4547.78 228.142   1
  -6  -5  -7 4432.01 145.976   3
   6  -5   7 3864.91 256.387   3
   6   5   7 4171.56 224.765   2
  -6  -5  -7 4254.16 255.088   2
  -6  -5  -8 1229.19 138.609   2
  -6  -5  -8 1112.94 82.8836   3
   6  -5   8 1176.38 145.012   3
  -6  -5  -8 938.954 106.563   1
  -6  -5  -9 2044.52 182.176   2
  -6  -5  -9 2207.74 130.373   3
   6  -5   9 2277.54 208.191   3
   6  -5  10 545.977 103.702   3
  -6  -5 -10 493.113 66.9582   3
  -6  -5 -10 505.090 91.7012   2
   6  -5  11-7.20265 41.2435   3
  -6  -5 -11-3.73882 14.1537   3
  -6  -5 -11-14.7372 16.3371   2
  -6  -5 -12 408.764 71.6116   3
   6  -5  12 475.832 105.252   3
  -6  -5 -13 545.480 84.5358   3
   6  -5  13 463.456 116.712   3
  -6  -5 -14 552.271 89.5509   3
   6  -5  14 584.541 121.752   3
  -6  -5 -15 24.4679 18.4014   3
   6  -5  15 171.765 80.1804   3
  -6  -5 -16 326.561 76.6302   3
   6  -5  16 205.845 78.4157   3
   6  -5  17 51.6762 46.9022   3
   6  -5  18 913.227 160.906   3
   6  -5  19 33.3153 41.6978   3
   6  -5  20 304.204 111.543   3
   6  -5  21 24.2777 37.0330   3
  -6  -6  22 188.695 101.962   3
   6   6 -22 26.9992 46.9282   2
  -6  -6  21 450.786 136.018   3
   6   6 -21 412.287 132.514   2
  -6  -6  20-10.1662 36.7003   3
   6   6 -20-27.5698 59.0911   2
  -6  -6  19 114.291 70.7019   3
   6   6 -19 33.1299 42.3507   2
   6   6 -18 187.393 83.8446   2
  -6  -6  18 137.359 72.8834   3
  -6  -6  17 199.100 69.1458   3
   6   6 -17 241.310 88.6601   2
  -6  -6  16 275.545 85.0716   3
   6   6 -16 254.201 88.6141   2
   6  -6 -15 291.669 63.8596   2
   6   6 -15 431.140 117.690   2
  -6  -6  15 387.256 97.3491   3
   6   6 -14 642.302 133.344   2
  -6  -6  14 732.511 132.038   3
   6  -6 -14 666.556 84.4199   2
  -6  -6  13-12.6159 43.3858   3
   6  -6 -13 8.77962 14.5573   2
   6   6 -13 56.4136 52.5619   2
   6   6 -12 269.815 66.0183   3
  -6  -6  12 293.888 79.8025   3
   6  -6 -12 271.915 46.9332   2
   6   6 -12 237.705 73.1660   2
   6  -6 -12 244.120 58.1181   1
   6  -6 -11 1088.60 86.3364   2
   6  -6 -11 963.881 109.016   1
   6   6 -11 989.053 149.289   2
   6   6 -11 893.630 130.588   3
  -6  -6  11 1025.44 138.569   3
   6  -6 -10 1126.13 80.9979   2
   6   6 -10 958.552 125.948   3
   6   6 -10 1107.06 154.936   2
  -6  -6  10 1028.36 131.858   3
   6  -6 -10 1088.02 109.167   1
   6  -6  -9 774.615 65.6492   2
   6  -6  -9 837.476 63.4118   2
   6   6  -9 746.161 108.070   3
   6   6  -9 596.939 109.953   2
  -6  -6   9 831.449 114.976   3
  -6  -6   8 595.551 90.3823   3
   6  -6  -8 693.731 48.3286   2
   6  -6  -8 628.410 50.5232   2
   6   6  -8 654.731 94.6588   3
   6   6  -8 709.265 116.240   2
   6  -6  -8 604.509 72.9448   1
  -6  -6   7 152.962 53.3797   2
   6  -6  -7 81.4979 24.7924   1
  -6  -6   7 72.0195 34.0386   3
   6   6  -7 86.8189 49.1990   2
   6   6  -7 143.741 42.7923   3
  -6  -6   6 20.8439 21.7723   3
   6   6  -6 1.52643 17.9570   3
  -6  -6   6 11.7738 28.1852   2
   6  -6  -6 16.4987 19.3534   1
   6   6  -6 24.4953 30.3605   2
  -6  -6   5 63.1641 44.0670   2
  -6  -6   5 48.2451 23.4143   3
   6   6  -5 47.2786 39.2471   2
  -6  -6   4 92.2300 44.0538   2
  -6  -6   4 96.4387 32.3277   3
   6   6  -4 96.3722 45.4699   2
   6   6  -3 1157.95 133.557   2
  -6  -6   3 616.608 101.415   2
  -6  -6   3 730.097 70.2239   3
  -6  -6   2 899.033 122.910   2
  -6  -6   2 864.339 65.8533   3
   6   6  -2 830.643 106.698   2
  -6  -6   1 102.167 20.5412   3
  -6  -6   1 153.293 51.5530   2
   6   6  -1 116.063 42.6080   2
   6   6   0 5951.59 258.345   1
  -6  -6   0 5301.96 286.068   2
  -6   6   0 5368.23 157.644   1
   6   6   0 5486.96 272.833   2
   6   6   1 2172.14 168.546   2
  -6  -6  -1 2275.66 182.951   2
  -6   6  -1 2204.48 77.8971   2
  -6   6  -1 2110.42 66.7836   2
  -6   6  -1 2362.49 99.4411   1
   6   6   1 2327.45 160.237   1
  -6   6  -2 57.1592 20.5531   1
  -6   6  -2 69.4662 20.5304   2
   6   6   2 36.1424 26.6391   1
   6   6   2 55.8373 36.6602   2
  -6  -6  -2 49.4645 26.6794   2
  -6   6  -3 54.6172 27.6914   2
  -6  -6  -3 8.06994 18.5129   2
   6   6   3 17.3257 27.0689   1
   6   6   3 37.9149 27.0231   2
  -6  -6  -4 614.519 97.2994   2
  -6   6  -4 659.077 71.5641   2
   6   6   4 686.159 98.0122   1
   6   6   4 588.506 87.0371   2
   6  -6   5 1490.55 162.755   3
   6   6   5 1633.25 151.894   1
   6   6   5 1591.61 142.229   2
  -6  -6  -5 2014.75 180.132   2
   6   6   6 1985.11 159.987   2
   6  -6   6 1854.33 183.483   3
  -6  -6  -6 2202.09 192.346   2
  -6  -6  -7 259.524 65.8572   2
   6   6   7 457.612 77.2159   2
  -6  -6  -7 424.628 40.9301   3
   6  -6   7 417.168 90.4493   3
  -6  -6  -8 22.7947 25.5662   2
   6  -6   8 94.3494 65.0201   3
  -6  -6  -8 13.5180 10.5173   3
  -6  -6  -9 373.058 505.912   3
  -6  -6  -9 488.699 924.139   2
   6  -6   9 576.514 1220.35   3
  -6  -6 -10 1807.46 184.596   2
  -6  -6 -10 1729.93 118.209   3
   6  -6  10 1391.90 180.906   3
  -6  -6 -11 216.369 48.2497   3
   6  -6  11 259.487 84.0786   3
  -6  -6 -12-1.72511 31.2189   3
   6  -6  12 11.1041 38.8193   3
   6  -6  13 490.711 115.133   3
  -6  -6 -13 449.773 76.6911   3
  -6  -6 -14 299.561 62.8906   3
   6  -6  14 437.506 108.998   3
   6  -6  15 170.926 70.7926   3
   6  -6  16 39.3427 49.8468   3
   6  -6  17 427.907 114.610   3
   6  -6  18-37.6119 53.6067   3
   6  -6  19 393.580 121.507   3
   6  -6  20 159.063 84.7625   3
  -6  -7  22 23.4713 54.6928   3
  -6  -7  21 69.2298 63.4742   3
   6   7 -21-124.541 76.8009   2
  -6  -7  20 157.676 87.8377   3
   6   7 -20 93.5941 64.4623   2
   6   7 -19 16.0849 53.8206   2
  -6  -7  19-19.7340 50.9206   3
  -6  -7  18 103.123 65.9796   3
   6   7 -18 134.142 67.1188   2
   6   7 -17 17.1655 42.3919   2
  -6  -7  17 64.5145 52.3141   3
  -6  -7  16 410.195 110.247   3
   6   7 -16 351.688 108.419   2
  -6  -7  15 48.9292 51.8983   3
   6   7 -15-25.1818 56.6266   2
  -6  -7  14 527.391 111.825   3
   6   7 -14 667.132 141.740   2
  -6  -7  13-31.2697 44.7103   3
   6   7 -13 83.0869 62.1623   2
   6  -7 -13-8.45364 23.4870   1
   6  -7 -12 72.0314 33.0767   1
   6   7 -12 117.766 70.8133   2
   6  -7 -12 122.946 34.6309   2
  -6  -7  12 140.855 59.0083   3
  -6  -7  11 721.849 120.040   3
   6  -7 -11 692.043 65.8188   2
   6   7 -11 586.588 107.521   3
   6   7 -11 719.646 132.029   2
   6  -7 -11 619.025 84.0170   1
  -6  -7  10-15.8651 39.6748   3
   6  -7 -10 17.1917 26.2018   1
   6  -7 -10-0.68146 9.42838   2
   6  -7 -10 10.1524 10.6492   2
   6   7 -10 14.1054 43.7059   2
   6   7 -10 34.5753 26.9736   3
   6  -7  -9 471.174 39.5617   2
   6  -7  -9 501.605 68.5470   1
   6  -7  -9 458.487 41.7822   2
  -6  -7   9 553.672 97.1786   3
   6   7  -9 520.449 90.7898   3
   6   7  -9 566.082 111.017   2
   6   7  -8 9.25669 29.7994   2
  -6  -7   8 39.3315 35.2558   3
  -6  -7   7 451.465 79.1893   3
   6   7  -7 505.288 99.3346   2
   6   7  -6 929.224 132.790   2
  -6  -7   6 1071.03 145.812   2
  -6  -7   6 974.240 106.405   3
   6   7  -5 887.394 125.869   2
  -6  -7   5 816.277 127.171   2
  -6  -7   5 1005.28 102.049   3
   6   7  -4 2039.41 185.958   2
  -6  -7   4 2483.51 214.939   2
  -6  -7   4 2426.50 146.808   3
   6   7  -3 138.838 56.9453   2
  -6  -7   3 45.5634 37.1283   2
  -6  -7   3 72.8011 24.8316   3
  -6  -7   2 126.019 27.5678   3
   6   7  -2 109.247 44.8035   2
  -6  -7   2 95.9431 47.7126   2
  -6  -7   1 2294.46 202.602   2
   6   7  -1 2917.91 192.535   1
  -6  -7   1 2412.82 100.544   3
   6   7  -1 2407.75 194.118   2
   6   7   0 2384.34 170.848   1
  -6  -7   0 2971.27 225.462   2
  -6   7   0 2576.72 127.468   1
  -6  -7   0 2290.50 76.1504   3
   6   7   0 2509.82 195.144   2
   6   7   1 1275.15 137.019   2
  -6  -7  -1 1284.92 148.743   2
  -6   7  -1 1275.65 85.8552   1
   6   7   1 1189.57 122.988   1
   6   7   2 1028.71 120.620   2
  -6  -7  -2 928.884 126.127   2
  -6   7  -2 999.282 67.6905   2
   6   7   2 1059.40 120.029   1
  -6   7  -2 1022.90 76.1375   1
   6   7   3 494.451 86.6618   1
  -6   7  -3 586.589 62.6610   2
  -6  -7  -3 449.087 89.4353   2
   6   7   3 525.180 85.8366   2
   6   7   4 815.844 113.489   1
  -6   7  -4 863.088 82.2357   2
   6   7   4 749.878 104.476   2
  -6  -7  -4 763.534 115.748   2
   6   7   5-19.4055 25.2696   2
  -6   7  -5 1.97663 17.4055   2
   6  -7   5-35.5127 40.5618   3
   6   7   5 1.67456 25.8322   1
  -6  -7  -5 77.9779 42.8310   2
  -6   7  -6 1639.50 134.207   2
   6  -7   6 1389.52 166.246   3
   6   7   6 1633.84 151.591   2
  -6  -7  -6 1582.52 171.576   2
   6  -7   7 978.870 145.448   3
  -6  -7  -7 908.471 55.1622   3
  -6  -7  -7 1185.99 149.379   2
   6   7   7 1099.78 124.572   2
  -6  -7  -8 2233.16 100.080   3
  -6  -7  -8 1767.74 187.866   2
   6  -7   8 1928.55 204.338   3
  -6   7  -9 266.556 63.5025   2
  -6  -7  -9 222.489 37.0179   3
   6  -7   9 263.372 85.1466   3
  -6  -7 -10 16.9970 15.4287   3
   6  -7  10 61.6671 48.2311   3
  -6  -7 -11-32.0200 21.2217   3
   6  -7  11-10.1865 37.9849   3
   6  -7  12 842.210 149.155   3
   6  -7  13-41.1973 49.7175   3
   6  -7  14 148.724 74.9837   3
   6  -7  15 560.785 125.401   3
   6  -7  16-37.1921 48.2243   3
   6  -7  17 163.218 87.4380   3
   6  -7  18-14.5835 65.6733   3
   6  -7  19 75.1715 60.5610   3
  -6  -8  21 119.999 92.0595   3
  -6  -8  20 7.17314 41.8493   3
  -6  -8  19 51.4380 52.5630   3
   6   8 -19 31.9354 58.0292   2
  -6  -8  18 29.3483 47.2901   3
   6   8 -18 71.2169 46.8769   2
  -6  -8  17-4.95005 39.4065   3
   6   8 -17-10.7597 39.6212   2
  -6  -8  16 80.6896 47.3352   3
   6   8 -16 207.806 84.3932   2
  -6  -8  15 262.560 89.2659   3
   6   8 -15 245.624 98.1190   2
  -6  -8  14 68.3170 47.0621   3
   6   8 -14 204.308 79.3838   2
  -6  -8  13 54.8335 33.8734   3
   6   8 -13-43.0294 54.2880   2
  -6  -8  12 594.640 115.814   3
   6  -8 -12 414.138 70.0822   1
   6   8 -12 589.572 129.459   2
  -6  -8  11-7.27712 29.6554   3
   6  -8 -11 43.9123 25.7100   1
   6   8 -11 29.4697 44.0622   2
  -6  -8  10 901.087 129.947   3
   6  -8 -10 804.971 94.8191   1
   6   8 -10 793.410 138.647   2
  -6  -8   9 220.641 62.8433   3
   6   8  -9 188.398 66.5411   2
  -6  -8   8 777.938 110.865   3
   6   8  -8 742.614 125.619   2
   6   8  -7-75.2962 48.9341   2
  -6  -8   7 9.25774 20.6768   3
  -6  -8   6 362.401 68.7078   3
   6   8  -6 333.844 81.2387   2
   6   8  -5-19.7162 31.1805   2
  -6  -8   5-8.50771 18.4178   3
   6   8  -4 1237.29 150.589   2
  -6  -8   4 1297.27 109.747   3
   6   8  -3 209.874 62.9641   2
  -6  -8   3 217.018 68.9737   2
  -6  -8   3 198.063 40.7420   3
   6   8  -2 4259.56 249.938   1
  -6  -8   2 3690.79 272.822   2
  -6  -8   2 4136.15 163.281   3
   6   8  -2 3501.46 245.783   2
   6   8  -1 2643.05 195.181   1
  -6  -8   1 2691.39 229.451   2
   6   8  -1 2623.33 208.875   2
  -6  -8   1 2731.63 115.661   3
  -6   8   0 2286.55 134.666   1
   6   8   0 2160.84 189.263   2
  -6  -8   0 2270.02 211.998   2
   6   8   0 2653.12 193.377   1
  -6  -8   0 2310.62 85.3380   3
   6   8   1 1214.70 137.927   2
  -6  -8  -1 1072.33 142.566   2
  -6   8  -1 1259.70 96.2812   1
   6   8   1 1366.20 145.320   1
  -6   8  -2 8.32202 14.2031   1
  -6  -8  -2-1.66796 19.3657   2
   6   8   2 62.3371 35.9465   2
   6   8   2 34.3925 32.1600   1
  -6   8  -2 18.9094 9.84416   2
  -6   8  -3 252.908 44.0656   1
  -6   8  -3 226.564 38.2621   2
   6   8   3 255.662 69.4324   1
  -6  -8  -3 168.387 59.5776   2
   6   8   3 207.626 57.9479   2
   6   8   4 10.1483 21.5027   2
   6   8   4 48.9688 48.3032   1
  -6   8  -4-4.42635 23.3094   2
   6  -8   4 29.6846 45.3043   3
  -6  -8  -4 9.22926 20.2298   2
   6   8   5 46.3430 31.9077   2
   6  -8   5-22.4644 43.3589   3
  -6   8  -5 75.4379 34.1874   2
  -6  -8  -5-3.03174 32.6096   2
   6   8   5 15.4293 35.6715   1
   6   8   6-20.0433 30.8800   2
  -6   8  -6 32.9245 29.3509   2
   6  -8   6-13.7018 47.2580   3
  -6  -8  -6 27.7386 14.8477   2
   6   8   7 167.178 49.7917   2
   6  -8   7 193.772 74.1958   3
  -6   8  -8 121.854 43.9628   2
   6  -8   8 57.4405 51.4734   3
  -6  -8  -8 117.567 18.7300   3
  -6   8  -9 816.945 111.670   2
   6  -8   9 934.323 152.846   3
   6  -8  10 477.112 110.882   3
  -6   8 -10 417.786 82.7178   2
   6  -8  11 452.206 105.026   3
  -6   8 -11 217.409 62.6111   2
  -6   8 -12 9.50250 26.4013   2
   6  -8  12 206.893 84.0688   3
  -6   8 -13-1.16388 37.3979   2
   6  -8  13 82.9372 60.8864   3
  -6   8 -14-11.9228 38.5607   2
   6  -8  14 46.8927 53.3893   3
  -6   8 -15 45.3919 41.9305   2
   6  -8  15 134.353 80.3624   3
  -6   8 -16-64.6321 43.2923   2
   6  -8  16 41.1220 55.6255   3
   6  -8  17 66.1760 59.4200   3
  -6   8 -17 18.9809 45.5029   2
  -6   8 -18 190.173 83.3334   2
   6  -8  18 364.524 118.340   3
  -6   8 -19 22.9842 41.9352   2
  -6   8 -20-39.5374 48.3639   2
  -6   8 -21-111.665 67.9862   2
  -6  -9  20 44.2897 48.4130   3
  -6  -9  19-37.7496 48.1529   3
  -6  -9  18-69.3938 58.2385   3
   6   9 -18 53.0854 38.1182   2
  -6  -9  17 311.840 107.052   3
   6   9 -17 85.1392 65.9164   2
  -6  -9  16 363.203 113.095   3
   6   9 -16 362.310 119.581   2
  -6  -9  15 17.6427 31.0887   3
   6   9 -15-29.2403 64.5788   2
   6   9 -14 186.697 67.7290   2
  -6  -9  14 78.1707 47.8971   3
  -6  -9  13 54.7344 36.2778   3
   6   9 -13-10.4926 34.8524   2
  -6  -9  12 447.344 100.533   3
   6   9 -12 670.035 138.437   2
  -6  -9  11 39.2382 25.6947   3
   6   9 -11 39.9183 32.0140   2
  -6  -9  10 121.517 55.4516   3
   6   9 -10 143.717 64.1791   2
   6   9  -9 128.682 58.7498   2
  -6  -9   9 220.086 71.3171   3
   6   9  -8 436.959 98.0520   2
  -6  -9   8 552.749 97.9875   3
   6   9  -7 110.070 51.6364   2
  -6  -9   7 37.5270 31.7320   3
   6   9  -6 108.797 54.6493   2
  -6  -9   6 100.289 41.2451   3
   6   9  -5 280.683 80.3694   2
  -6  -9   5 265.128 59.6107   3
   6   9  -4 1187.47 155.056   2
  -6  -9   4 1343.13 115.232   3
   6   9  -3 51.8830 41.0378   2
  -6  -9   3 22.9672 14.0738   3
   6   9  -3 2.99211 28.7862   1
   6   9  -2 1150.05 135.129   1
  -6  -9   2 1152.31 90.5134   3
   6   9  -2 1028.93 141.046   2
  -6  -9   1 4145.99 149.198   3
   6   9  -1 4328.94 281.429   2
   6   9  -1 4059.26 256.774   1
   6   9   0 1489.23 161.163   2
   6   9   0 1712.99 171.026   1
  -6  -9   0 1139.20 62.8856   3
  -6   9  -1 407.572 61.1789   1
   6   9   1 402.065 89.4048   2
   6   9   1 317.569 73.4022   1
  -6   9  -2 460.431 34.0848   2
  -6   9  -2 472.004 63.4627   1
   6   9   2 401.332 86.0408   1
   6   9   2 432.630 89.8303   2
   6   9   3 108.417 55.7136   1
  -6   9  -3 88.0036 24.6482   2
  -6   9  -3 100.666 31.1860   1
   6   9   3 91.6118 41.1504   2
   6   9   4 60.4648 34.9739   1
  -6   9  -4 25.5560 21.4802   1
   6   9   4 10.8033 17.8887   2
   6  -9   4-34.6942 47.1691   3
  -6   9  -4 52.3390 22.8733   2
   6   9   5 115.072 43.6074   2
  -6   9  -5 134.256 38.6736   1
   6  -9   5 89.0507 51.5313   3
  -6   9  -5 135.237 38.2818   2
   6   9   6 0.95149 18.0900   2
   6  -9   6 18.2803 40.9894   3
   6  -9   7 1056.49 157.270   3
   6   9   7 940.474 127.609   2
   6  -9   8 485.216 112.626   3
  -6   9  -8 339.503 72.6377   2
  -6   9  -9 593.611 96.9066   2
   6  -9   9 642.734 129.742   3
  -6   9 -10 30.6339 32.6076   2
   6  -9  10-55.1333 39.0606   3
   6  -9  11 61.3934 54.5664   3
  -6   9 -11-25.7951 30.1586   2
  -6   9 -12-66.1393 51.1871   2
   6  -9  12 27.3260 39.0355   3
  -6   9 -13 22.0025 32.1561   2
   6  -9  13 40.8298 63.8343   3
  -6   9 -14 26.7152 45.6056   2
   6  -9  14 0.31139 37.1904   3
   6  -9  15 44.2274 32.3337   3
  -6   9 -15-17.2887 26.8160   2
  -6   9 -16 79.6954 45.5144   2
   6  -9  16 27.8829 29.9955   3
  -6   9 -17-97.6856 57.4169   2
  -6   9 -18 5.71667 44.1495   2
  -6   9 -19 24.1973 36.1313   2
  -6   9 -20 10.3814 39.8998   2
  -6 -10  17 25.1871 38.9323   3
  -6 -10  16 68.7273 51.3590   3
   6  10 -16 15.1969 34.8419   2
  -6 -10  15 6.45113 29.8024   3
   6  10 -15-0.31770 30.9366   2
  -6 -10  14-182.743 74.6337   3
   6  10 -14-87.3547 58.1915   2
  -6 -10  13 106.521 45.6541   3
   6  10 -13 8.06697 28.1995   2
  -6 -10  12-27.0705 39.8561   3
   6  10 -12 9.20545 37.6996   2
  -6 -10  11 461.039 101.647   3
   6  10 -11 411.162 112.023   2
  -6 -10  10-50.9753 28.9630   3
   6  10 -10-146.990 66.4930   2
  -6 -10   9 418.945 93.6096   3
   6  10  -9 230.483 77.3199   2
   6  10  -8-17.9340 44.5630   2
  -6 -10   8 20.8344 30.5275   3
   6  10  -7 693.353 131.580   2
  -6 -10   7 621.318 102.018   3
   6  10  -6-58.3073 43.2351   2
   6  10  -5 295.606 84.8758   2
   6  10  -4 62.6100 48.9370   1
   6  10  -4 2.37015 23.9867   2
   6  10  -3 542.041 107.559   2
   6  10  -3 634.156 108.710   1
   6  10  -2-85.2891 45.7809   2
   6  10  -2 50.4619 45.2309   1
   6  10  -1 111.131 50.1900   1
   6  10  -1 115.046 54.3907   2
   6  10   0 256.169 79.0665   1
   6  10   0 258.148 77.7542   2
   6  10   1 97.0787 46.9148   2
   6  10   1 262.070 77.0118   1
  -6  10  -2 370.857 63.8863   1
   6  10   2 403.219 92.9651   1
   6  10   2 242.413 64.2242   2
   6  10   3 6.99701 18.9305   2
   6  10   3 16.5626 33.0827   1
  -6  10  -3 11.4293 22.8537   1
   6 -10   3 6.72867 29.4939   3
   6  10   4 55.0041 43.8336   1
   6  10   4 1.37176 25.4303   2
   6 -10   4 34.2497 45.2737   3
  -6  10  -4 30.7723 28.4351   1
   6  10   5 10.9986 19.9191   2
  -6  10  -5-4.42482 17.3221   1
  -6  10  -6 498.810 78.9773   1
   6  10   6 591.726 102.223   2
   6 -10   6 546.800 120.370   3
   6 -10   7-70.3856 64.3330   3
   6 -10   8 398.137 106.262   3
   6 -10   9 23.1349 32.7364   3
   6 -10  10-43.9255 45.6882   3
   6 -10  11 8.73241 40.6128   3
   6 -10  12 129.501 76.4240   3
   6 -10  13 174.872 87.5659   3
   6 -10  14-59.9400 55.9942   3
   6  11 -15 0.33624 68.3402   2
   6  11 -14 133.692 73.2753   2
   6  11 -13 38.4615 46.1498   2
   6  11 -12-55.5289 48.9789   2
   6  11 -11-0.29544 32.7209   2
   6  11 -10-12.7577 29.3628   2
   6  11  -9-15.3404 39.3554   2
   6  11  -8 1.57735 29.3015   2
   6  11  -7 17.5146 33.2628   2
   6  11  -6 283.739 80.5163   1
   6  11  -6 208.988 72.3142   2
   6  11  -5 38.4868 30.0666   1
   6  11  -5 23.3882 31.5113   2
   6  11  -4 137.668 56.0653   1
   6  11  -4 50.3877 21.6978   2
   6  11  -3 45.6319 45.5256   2
   6  11  -3 3.97461 29.5634   1
   6  11  -2 47.9543 24.5464   1
   6  11  -2 84.9328 46.5046   2
   6  11  -1 85.7987 47.4520   1
   6  11  -1 30.6900 39.7674   2
   6  11   0 812.527 130.480   2
   6  11   0 673.286 123.163   1
   6 -11   1-7.87186 32.1853   3
   6  11   1 88.9249 39.5041   1
   6  11   1 67.6970 35.9367   2
   6  11   2 28.8374 38.4519   2
   6  11   2 16.0244 43.6757   1
   6 -11   2-10.0079 32.4867   3
   6  11   3 24.9521 26.7568   2
   6 -11   3-55.8115 48.2306   3
   6  11   3-0.95449 31.2993   1
   6 -11   4 5.01732 31.0049   3
   6  11   4-9.04623 17.3461   2
   6  11   5 72.0736 41.2504   2
   6 -11   5 240.750 90.4143   3
   6  11   6-21.0604 35.7921   2
   6 -11   6-48.2784 46.7458   3
   6 -11   7 70.5931 55.2474   3
   6 -11   8-31.7840 42.8122   3
   6 -11   9 50.2084 56.6678   3
   6 -11  10-39.6025 46.8677   3
   6 -11  11-51.2178 45.1826   3
   6 -11  12 261.977 97.7927   3
   6  12 -12 87.4449 56.1405   2
   6  12 -11-112.089 62.5846   2
   6  12 -10-40.0473 41.6020   2
   6  12  -9 2.60619 26.3570   2
   6  12  -8 16.7990 29.5199   1
   6  12  -8 28.7533 42.8313   2
   6  12  -7-249.107 84.5748   2
   6  12  -7-39.4743 52.9721   1
   6  12  -6 245.411 80.6645   2
   6  12  -6 105.016 59.0998   1
   6  12  -5-44.2543 57.8158   1
   6  12  -5-11.2709 34.4071   2
   6  12  -4 62.2046 43.4390   2
   6  12  -4 195.499 67.5063   1
   6  12  -3 281.938 84.4657   1
   6  12  -3 122.620 48.6114   2
   6  12  -2 51.6607 44.0596   2
   6  12  -2 54.2729 39.9452   1
   6  12  -1-111.043 53.4567   2
   6  12  -1 51.7256 45.2285   1
   6 -12   0-53.6987 41.8627   3
   6  12   0 64.8723 48.5797   1
   6  12   0 2.97950 22.6390   2
   6  12   1 21.3198 21.1024   2
   6  12   1-45.5860 43.4051   1
   6 -12   1 52.8434 51.9123   3
   6  12   2 128.796 78.9670   1
   6 -12   2-74.7494 54.1449   3
   6 -12   3 114.076 69.8113   3
   6 -12   4 22.4416 49.6079   3
   6 -12   5 58.8910 64.4212   3
   6 -12   6 34.6657 50.8839   3
   6 -12   7 23.2026 38.6056   3
   6 -12   8 0.31901 45.7362   3
   6 -12   9 29.3910 50.5380   3
   7   0 -25-78.6745 56.6048   2
   7   0 -24 3.28412 33.5822   2
   7   0 -23-0.26290 39.6117   2
   7   0 -22-76.5458 48.3823   2
   7   0 -21 24.8162 41.2527   2
   7   0 -20 29.2164 41.6460   2
   7   0 -19 66.1854 49.8289   2
   7   0 -18-6.03981 34.0143   2
   7   0 -17 787.262 131.226   2
   7   0 -16-32.4680 44.7781   2
   7   0 -15 121.304 53.0737   2
   7   0 -14 320.328 86.7353   2
   7   0 -14 216.789 72.3391   3
   7   0 -13 1201.56 139.528   2
   7   0 -13 1177.69 150.029   3
   7   0 -12-20.5933 30.0188   3
   7   0 -12-23.5080 34.6552   2
   7   0 -11 49.3388 37.7226   3
   7   0 -11-15.9359 32.0844   2
   7   0 -10-28.5394 31.7259   3
   7   0 -10 7.41966 29.6145   2
   7   0  -9 36972.5 665.897   2
   7   0  -9 38577.1 761.075   3
   7   0  -8-20.5834 22.2474   3
   7   0  -8-0.52887 35.6348   2
   7   0  -7 7904.28 327.692   3
   7   0  -7 7241.26 276.290   2
   7   0  -6-3.67729 27.8588   3
  -7   0   6 11.4053 20.8472   2
   7   0  -6-32.9853 34.9006   2
  -7   0   5 22876.7 452.847   2
   7   0  -5 22766.4 443.803   2
   7   0  -4-11.0667 20.5377   2
  -7   0   4 0.56410 15.6426   2
  -7   0   3 9621.95 274.057   2
   7   0  -3 9588.74 267.810   2
   7   0  -2 2.34104 16.0521   2
  -7   0   2 7.93815 16.2976   2
   7   0  -1 1785.32 114.559   2
  -7   0   1 1966.48 120.628   2
   7   0   0 201.272 31.4413   1
  -7   0   0 98.8282 29.6821   2
   7   0   0 163.830 39.7391   2
   7   0   1 183.079 36.8541   2
  -7   0  -1 142.895 33.5316   2
   7   0   1 189.364 28.0101   1
  -7   0  -2 11.3690 20.8535   2
  -7   0  -2 4.21785 10.5331   1
   7   0   2-25.8377 24.9172   2
   7   0   3 436.860 56.6593   2
  -7   0  -3 443.160 59.9636   2
  -7   0  -3 452.166 46.8976   1
  -7   0  -4 5.22168 13.5435   1
   7   0   4-50.9125 31.4831   2
  -7   0  -4 43.5122 30.7143   2
  -7   0  -5 200.155 42.8002   2
   7   0   5 164.843 43.0929   3
  -7   0  -5 176.640 35.4903   1
   7   0   6-14.2733 34.2446   3
  -7   0  -6-12.5967 17.0380   2
   7   0   7 792.166 93.0722   3
  -7   0  -7 676.942 84.9139   2
  -7   0  -8-13.8495 22.1028   2
  -7   0  -9 3786.35 216.458   2
  -7   0 -10 8.81106 19.5569   2
  -7   0 -11 159.994 48.4889   2
  -7   0 -11 70.5907 30.8878   3
   7   0  11 73.1769 34.4283   3
  -7   0 -12-32.1617 31.0565   2
  -7   0 -12 7.90611 22.7830   3
   7   0  12 46.7869 40.1246   3
  -7   0 -13 217.899 63.7939   3
   7   0  13 226.485 63.8748   3
  -7   0 -14 159.086 62.2236   3
   7   0  14 718.961 117.751   3
   7   0  15 1810.68 190.379   3
   7   0  16-35.1887 36.0855   3
   7   0  17 711.478 127.250   3
   7   0  18 19.5912 32.4308   3
   7   0  19 729.661 141.113   3
   7   0  20 19.0259 44.0627   3
   7   0  21 44.7655 36.7064   3
   7   0  22-53.0435 51.1291   3
   7   0  23-1.73270 44.0761   3
   7   0  24 51.5866 67.3842   3
   7   0  25 157.270 75.2810   3
   7  -1 -26 0.81281 45.4674   2
   7   1 -25 115.844 42.2384   2
   7  -1 -25 30.0466 32.8505   2
   7  -1 -24 209.781 78.7102   2
   7   1 -24 274.202 109.122   2
   7  -1 -23 102.618 49.5938   2
   7   1 -23 35.9845 41.5182   2
  -7  -1  22 109.952 91.7471   3
   7  -1 -22 5.11371 32.4462   2
   7   1 -22-102.590 69.0409   2
  -7  -1  21-13.7144 34.3390   3
   7  -1 -21-21.6272 34.7464   2
   7   1 -21-49.2449 44.4222   2
  -7  -1  20 27.0750 53.5565   3
   7  -1 -20-2.13221 26.9743   2
   7   1 -20-13.1630 46.0708   2
  -7  -1  19 18.4047 48.6692   3
   7   1 -19 9.21499 32.5607   2
   7  -1 -19 22.1709 44.6746   2
  -7  -1  18 27.6153 60.4322   3
   7  -1 -18 75.8537 41.0435   2
   7   1 -18 127.209 62.2280   2
  -7  -1  17 3882.81 334.480   3
   7  -1 -17 3421.15 254.818   2
   7   1 -17 3847.74 288.031   2
  -7  -1  16 89.1263 58.0482   3
   7  -1 -16-7.28631 36.9885   2
   7   1 -16-13.4629 31.6720   2
  -7  -1  15 56.5196 53.3699   3
   7  -1 -15 77.0582 42.4108   2
   7   1 -15-18.7219 49.9975   2
  -7  -1  14 216.983 81.0439   3
   7  -1 -14 161.761 55.8887   2
   7   1 -14 232.123 77.6068   2
   7   1 -14 220.707 66.5914   3
   7   1 -13 1093.62 141.044   2
   7  -1 -13 931.755 118.001   2
  -7  -1  13 964.539 143.997   3
   7   1 -13 980.210 135.049   3
   7  -1 -13 1041.90 145.332   3
  -7  -1  12 81.0083 46.7017   3
   7  -1 -12 78.2900 32.6157   3
   7   1 -12 56.0013 49.6791   2
   7  -1 -12 39.0397 31.9623   2
   7   1 -12 92.3621 42.1595   3
   7  -1 -11 1066.92 115.250   2
   7   1 -11 1135.21 144.515   2
   7   1 -11 1170.46 134.693   3
   7  -1 -11 1262.11 150.214   3
   7  -1 -10 1235.14 146.658   3
   7  -1 -10 999.324 109.802   2
   7   1 -10 1014.20 120.726   2
   7   1 -10 1017.47 120.149   3
   7  -1  -9 196.226 58.4625   3
   7  -1  -9 79.3630 34.7974   2
   7   1  -9 217.271 64.6322   2
   7   1  -9 118.358 37.3058   3
   7  -1  -8 9090.84 380.827   3
   7  -1  -8 8681.17 294.151   2
   7   1  -8 8885.36 329.814   2
   7   1  -8 8849.11 336.217   3
  -7  -1   7 8038.27 305.963   2
   7  -1  -7 8340.83 274.514   2
   7   1  -7 7983.67 301.626   2
   7   1  -7 8420.81 315.940   3
   7  -1  -6 412.010 57.2320   2
   7   1  -6 409.183 64.9372   3
  -7  -1   6 427.125 70.5105   2
   7   1  -6 446.477 73.8991   2
  -7   1   5 368.338 52.3224   2
  -7  -1   5 364.907 64.9056   2
   7  -1  -5 337.227 50.7694   2
   7   1  -5 350.962 63.0425   2
   7   1  -5 339.478 60.3686   3
   7   1  -4 1297.21 113.597   3
   7   1  -4 1329.82 111.211   2
  -7   1   4 1419.28 100.223   2
  -7  -1   4 1516.34 123.416   2
   7  -1  -4 1408.80 96.4782   2
   7  -1  -3 131.983 32.1592   2
   7   1  -3 143.850 38.5598   2
  -7   1   3 131.249 29.2392   2
  -7  -1   3 138.619 37.7638   2
  -7   1   2 3099.22 137.406   2
  -7  -1   2 3378.19 172.298   2
   7  -1  -2 3268.59 139.731   2
   7   1  -2 3386.85 169.857   2
   7  -1  -1 1046.03 76.4022   2
  -7  -1   1 1096.73 95.0439   2
   7   1  -1 1054.92 95.2948   2
  -7   1   1 1074.95 80.9218   2
   7   1   0 1784.88 119.972   2
   7  -1   0 1740.60 98.2293   2
  -7  -1   0 1725.86 119.891   2
   7  -1   0 1809.20 65.0940   1
  -7   1   0 1679.96 102.501   2
   7   1   1 2746.61 148.176   2
   7  -1   1 3030.97 130.825   2
  -7  -1  -1 2936.84 159.770   2
   7   1   1 3084.95 120.067   1
  -7   1  -1 2957.04 138.185   2
   7   1   2 6950.65 194.077   1
  -7   1  -2 6206.43 206.093   2
   7   1   2 6631.69 233.160   2
   7  -1   2 7155.97 205.630   2
  -7   1  -2 7224.05 144.898   1
  -7  -1  -2 7148.26 252.709   2
  -7  -1  -3 31.8451 18.4807   1
  -7   1  -3 22.5363 13.5497   1
  -7  -1  -3 0.63376 17.4537   2
  -7   1  -3 13.6046 13.5736   2
  -7   1  -4 11.1055 11.9994   2
  -7  -1  -4 12.5710 14.9097   1
   7   1   4 0.88263 21.6817   3
  -7  -1  -4 39.2842 28.0178   2
  -7  -1  -5 445.285 57.4559   1
   7  -1   5 389.891 65.2998   3
   7   1   5 526.867 63.9472   3
  -7   1  -5 474.300 62.6892   2
  -7  -1  -5 430.322 68.3203   2
  -7  -1  -6 337.184 54.3479   1
  -7   1  -6 292.905 53.1842   2
   7  -1   6 327.712 64.5503   3
   7   1   6 298.535 51.6402   3
  -7  -1  -6 314.351 56.4435   2
  -7  -1  -7 2427.12 150.875   1
   7   1   7 2550.86 150.869   3
  -7  -1  -7 2682.72 173.141   2
  -7   1  -7 2596.05 164.385   2
  -7  -1  -8 3504.47 202.786   2
   7   1   8 3334.05 183.952   3
  -7   1  -8 3640.58 198.659   2
  -7  -1  -9 2482.30 169.894   3
   7   1   9 2295.07 159.045   3
  -7  -1  -9 2626.91 182.812   2
  -7  -1 -10 1456.70 142.011   2
   7  -1  10 1411.62 145.606   3
  -7  -1 -10 1351.42 131.914   3
  -7  -1 -11 457.828 81.6480   2
  -7  -1 -11 539.596 88.2112   3
   7  -1  11 522.590 90.7141   3
   7   1  12 1615.88 153.428   3
  -7  -1 -12 1751.03 164.264   3
   7  -1  12 1690.44 170.476   3
  -7  -1 -12 1784.48 168.256   2
  -7   1 -13 816.583 126.542   3
  -7  -1 -13 841.505 119.969   3
   7  -1  13 904.635 128.210   3
   7   1  13 782.012 112.657   3
  -7  -1 -14 2294.09 204.760   3
   7   1  14 2387.96 205.272   3
   7  -1  14 2415.69 217.579   3
  -7  -1 -15 2097.68 204.917   3
   7  -1  15 2251.01 216.155   3
   7   1  15 2160.21 204.295   3
   7  -1  16-35.0170 42.8673   3
   7   1  16-39.0748 49.3640   3
   7  -1  17 310.027 90.3935   3
   7   1  17 225.817 76.2046   3
   7  -1  18 710.385 134.222   3
   7   1  18 621.063 123.323   3
   7   1  19 334.216 98.4593   3
   7  -1  19 229.689 89.9664   3
   7   1  20 471.745 118.565   3
   7  -1  20 334.938 98.6269   3
   7   1  21 213.721 92.3119   3
   7  -1  21 398.045 114.434   3
   7   1  22-122.378 69.2199   3
   7  -1  22 57.8732 46.4017   3
   7  -1  23-52.9000 49.4284   3
   7   1  23 84.6880 72.6689   3
   7  -1  24 142.310 75.7678   3
   7   1  24 383.933 126.881   3
   7   1  25 108.337 84.1799   3
   7  -2 -26-20.3207 33.4934   2
   7  -2 -25 119.305 57.0659   2
  -7  -2  24 36.7221 42.4650   3
   7  -2 -24 63.9962 52.1167   2
   7  -2 -23 76.9143 50.7575   2
  -7  -2  23 91.7605 76.6173   3
   7   2 -23 32.9600 55.2703   2
  -7  -2  22 104.873 73.1052   3
   7  -2 -22 62.0432 47.3440   2
   7   2 -22-24.7005 59.8278   2
  -7  -2  21-102.503 88.0560   3
   7   2 -21 72.3171 34.4059   2
  -7  -2  20 11.7683 41.3599   3
   7   2 -20 104.591 63.1323   2
  -7  -2  19 230.718 101.340   3
   7   2 -19 55.0385 47.8837   2
  -7  -2  18 102.773 61.2186   3
   7   2 -18 227.145 74.9943   2
  -7  -2  17 167.902 69.6870   3
   7   2 -17 162.726 75.2850   2
  -7  -2  16 272.495 94.9699   3
   7   2 -16 209.497 78.4879   2
  -7  -2  15 599.776 124.052   3
   7   2 -15 355.179 87.8595   2
  -7  -2  14 1891.02 209.869   3
   7  -2 -14 1761.44 166.889   2
   7   2 -14 1951.12 201.978   2
   7   2 -14 2060.78 197.665   3
   7  -2 -13 561.882 106.289   3
  -7  -2  13 737.435 131.116   3
   7  -2 -13 603.436 96.1549   2
   7   2 -13 519.657 104.053   2
   7   2 -13 769.490 116.936   3
   7  -2 -12 462.605 97.0044   3
  -7  -2  12 462.260 102.530   3
   7  -2 -12 432.772 74.7096   2
   7   2 -12 515.656 96.7611   2
   7   2 -12 432.959 81.5317   3
   7  -2 -11-15.7739 24.2153   3
  -7  -2  11-7.16809 41.3598   3
   7   2 -11 74.4464 48.5370   2
   7  -2 -11-0.79329 23.3225   2
   7   2 -11 21.5076 31.1367   3
   7  -2 -10 1666.68 178.859   3
  -7  -2  10 1959.17 181.663   3
   7  -2 -10 1612.46 132.563   2
   7   2 -10 1715.04 153.493   3
  -7  -2   9 49.4458 30.3905   3
   7  -2  -9 52.1076 35.9428   3
   7  -2  -9 42.4200 28.0471   2
   7   2  -9 88.4844 38.6444   3
   7  -2  -8 6433.65 235.635   2
   7   2  -8 6781.16 283.419   3
  -7  -2   8 6585.37 298.919   3
  -7  -2   7 1085.22 118.348   2
   7  -2  -7 1104.77 94.4181   2
   7   2  -7 1089.36 109.813   3
  -7  -2   6 10480.0 362.280   2
   7  -2  -6 10339.8 269.261   2
   7   2  -6 10582.1 318.954   3
   7   2  -5 7299.94 251.384   3
  -7  -2   5 7241.61 295.111   2
   7  -2  -5 7326.68 212.301   2
   7   2  -4-17.4748 23.3401   3
  -7   2   4 37.9188 23.4858   2
  -7  -2   4 63.6413 36.1902   2
   7  -2  -4-1.57538 11.4018   2
   7  -2  -3-7.25786 13.0464   2
  -7  -2   3-26.8658 27.8337   2
  -7   2   3-7.35420 12.7815   2
   7   2  -3 11.6409 12.5584   3
   7  -2  -2 6737.48 171.698   2
   7   2  -2 6929.15 208.360   3
  -7   2   2 6716.87 178.745   2
  -7  -2   2 7121.27 271.442   2
  -7   2   1 467.286 47.8772   2
   7  -2  -1 587.135 50.7568   2
  -7  -2   1 496.025 71.9928   2
  -7   2   0 3830.93 139.455   2
  -7  -2   0 4066.96 202.471   2
   7  -2   0 3928.07 129.938   2
   7   2   1 240.367 39.5573   1
  -7  -2  -1 314.964 59.8334   2
   7  -2   1 309.195 37.4145   2
  -7   2  -1 307.654 41.5105   2
  -7  -2  -2 134.554 38.7191   2
  -7   2  -2 153.886 17.8520   1
  -7   2  -2 121.671 26.6017   2
   7   2   2 152.514 33.4537   1
  -7  -2  -3 667.085 69.8453   1
   7   2   3 659.908 54.2080   3
  -7   2  -3 661.107 66.9408   2
   7   2   3 571.516 66.6366   1
  -7  -2  -3 712.215 89.3883   2
  -7  -2  -4 110.125 34.3662   1
  -7  -2  -4 100.776 37.2248   2
  -7   2  -4 91.0271 27.1050   2
   7   2   4 89.1536 22.5197   3
  -7  -2  -5 6673.99 273.198   2
   7   2   5 6865.78 198.707   3
  -7  -2  -5 6755.94 230.540   1
  -7   2  -5 6921.43 233.961   2
  -7  -2  -6 5318.25 252.243   2
   7   2   6 5215.95 185.434   3
  -7  -2  -6 5317.56 213.567   1
  -7   2  -6 5618.29 222.178   2
  -7  -2  -7 34955.3 580.205   1
  -7  -2  -7 38024.4 686.446   2
   7   2   7 33883.9 515.609   3
  -7  -2  -8 52.4244 23.8556   3
  -7  -2  -8-13.8391 29.2244   1
   7   2   8 62.0949 28.5301   3
   7  -2   8 86.5241 40.8976   3
  -7  -2  -8 87.3678 36.9181   2
  -7  -2  -9 1065.90 118.300   2
  -7  -2  -9 915.826 96.3032   3
   7  -2   9 907.407 120.625   3
   7   2   9 967.903 100.351   3
  -7  -2  -9 895.548 104.066   1
  -7  -2 -10 42.2333 24.0463   2
  -7  -2 -10 25.1476 14.7542   3
  -7  -2 -10 18.2383 23.5946   1
   7   2  10-22.2132 35.9341   3
   7  -2  10 94.2197 43.4917   3
  -7  -2 -11 1.64093 17.2742   3
  -7  -2 -11-32.1893 40.2727   2
   7  -2  11 7.32975 31.9609   3
   7  -2  12 1132.22 144.090   3
  -7  -2 -12 919.872 120.494   3
  -7  -2 -12 1096.70 131.983   2
  -7  -2 -13 1034.23 128.123   3
   7  -2  13 1020.75 141.546   3
   7   2  13 1153.38 136.316   3
  -7  -2 -14 251.753 65.2651   3
   7  -2  14 275.276 84.2425   3
   7   2  14 231.737 67.9217   3
   7   2  15 137.077 47.4317   3
  -7  -2 -15 51.1751 30.5481   3
   7  -2  15 56.8296 39.7064   3
   7  -2  16 1475.62 187.571   3
   7   2  16 1563.71 180.652   3
   7   2  17 244.393 82.9836   3
   7  -2  17 123.219 62.9890   3
   7   2  18 1122.25 164.768   3
   7  -2  18 1243.66 186.593   3
   7   2  19-88.1897 68.3418   3
   7  -2  19-32.5011 45.9442   3
   7   2  20 910.904 160.439   3
   7  -2  20 987.757 176.105   3
   7   2  21 69.6837 62.9031   3
   7  -2  21-4.38235 41.3126   3
   7   2  22 298.274 106.672   3
   7  -2  22 302.040 109.742   3
   7   2  23 47.1366 40.3457   3
   7  -2  23-30.6589 48.8798   3
   7  -2  24 17.3409 53.2964   3
   7   2  24 60.7009 83.7490   3
   7   2  25 130.641 67.4452   3
   7  -3 -26 8.71421 23.8951   2
   7  -3 -25 30.0292 43.2046   2
  -7  -3  24-40.0377 42.8272   3
   7  -3 -24-4.60530 25.8363   2
   7   3 -24-93.2085 65.6473   2
  -7  -3  23-99.6953 75.0045   3
   7   3 -23 86.2928 54.3518   2
  -7  -3  22-67.5101 90.0151   3
   7   3 -22-4.70875 55.9194   2
  -7  -3  21 86.1158 86.1316   3
   7   3 -21 108.512 73.7622   2
  -7  -3  20 313.549 106.676   3
   7   3 -20 245.187 83.8476   2
  -7  -3  19 57.8818 59.2686   3
   7   3 -19-26.7767 47.2873   2
  -7  -3  18 75.1301 65.2453   3
   7   3 -18 75.5551 50.8276   2
  -7  -3  17 86.5210 62.7127   3
   7   3 -17-14.3495 39.4718   2
   7   3 -16 110.001 63.1321   2
  -7  -3  16 203.328 79.3426   3
  -7  -3  15 713.024 139.215   3
   7   3 -15 744.200 134.929   2
  -7  -3  14 113.224 56.9707   3
   7   3 -14 154.863 63.8491   2
   7  -3 -13 1005.02 112.328   2
   7   3 -13 913.620 137.291   2
   7   3 -13 1183.75 144.912   3
  -7  -3  13 1174.54 158.172   3
   7  -3 -12 219.865 70.2375   3
  -7  -3  12 341.186 91.1497   3
   7  -3 -12 252.746 60.3864   2
   7   3 -12 353.340 86.7909   2
   7   3 -12 336.102 77.5326   3
  -7  -3  11 220.478 72.7021   3
   7  -3 -11 230.854 77.9878   3
   7  -3 -11 215.032 52.4057   2
   7   3 -11 189.396 56.0274   3
   7   3 -11 259.194 77.6330   2
  -7  -3  10-60.1601 40.7642   3
   7  -3 -10-82.8800 44.1616   3
   7  -3 -10 37.7773 25.3340   2
   7   3 -10 14.6044 23.2745   3
  -7  -3   9 6.34186 26.0098   3
   7  -3  -9 27.7052 18.7477   2
   7   3  -9 40.8059 29.3262   3
  -7  -3   8 90.6977 51.8615   3
  -7  -3   8 127.759 49.2689   2
   7  -3  -8 115.175 35.8546   2
   7   3  -8 64.7652 33.9483   3
  -7  -3   7 192.273 50.6961   3
  -7  -3   7 207.654 56.2171   2
   7  -3  -7 155.746 36.9910   2
   7   3  -7 158.010 42.8951   3
  -7  -3   6 69.6554 33.0086   3
  -7  -3   6 55.0590 27.8985   2
   7  -3  -6 125.321 28.2569   2
   7   3  -6 92.8446 28.1175   3
  -7  -3   5 10156.7 368.474   2
   7  -3  -5 9665.93 208.688   2
   7   3  -5 9254.92 270.358   3
   7  -3  -4 162.657 26.2011   2
  -7  -3   4 159.239 47.6438   2
   7   3  -4 138.006 32.3587   3
  -7   3   3 56.1895 16.4936   2
   7  -3  -3 82.2265 16.3616   2
   7   3  -3 105.820 28.3074   3
  -7  -3   3 44.1641 31.0794   2
  -7   3   2 663.397 46.1369   2
  -7  -3   2 751.089 94.6620   2
   7  -3  -2 693.465 42.8752   2
   7   3  -2 724.606 57.9197   3
  -7   3   1 1746.47 78.2578   2
  -7  -3   1 2041.72 151.932   2
   7   3  -1 1735.09 77.5380   3
  -7  -3   0 7220.31 285.918   2
  -7   3   0 6853.02 165.352   2
   7   3   0 6821.29 129.337   3
  -7  -3  -1 40.0633 26.3573   2
   7   3   1 40.1628 31.0677   1
  -7   3  -1 19.1771 13.8198   2
  -7   3  -2 2804.04 120.905   2
   7   3   2 2951.76 149.473   1
  -7  -3  -2 2912.26 187.363   2
  -7   3  -3 1024.25 78.9707   2
   7   3   3 1050.77 96.9805   1
   7   3   3 1062.91 48.8689   3
  -7  -3  -3 1036.98 111.448   2
   7   3   4 2808.43 163.960   1
   7   3   4 2933.06 98.3662   3
  -7   3  -4 2909.54 140.392   2
  -7  -3  -4 3063.51 193.702   2
  -7  -3  -5 2637.04 183.097   2
   7   3   5 2644.21 108.091   3
  -7  -3  -6 9331.94 345.641   2
   7   3   6 9276.97 227.912   3
  -7  -3  -7 792.992 103.774   2
   7   3   7 704.075 70.0103   3
  -7  -3  -8-9.66208 15.6745   3
  -7  -3  -8 40.9425 31.0799   2
  -7  -3  -8-24.7659 25.4697   1
   7   3   8-16.2037 23.6998   3
   7   3   9 58.4548 19.3015   3
  -7  -3  -9 13.7117 21.0349   1
  -7  -3  -9 51.4163 28.4545   3
   7  -3   9 43.8800 34.3288   3
  -7  -3  -9 22.5917 19.7484   2
  -7  -3 -10 1014.99 123.946   2
  -7  -3 -10 752.144 91.7847   3
   7  -3  10 872.248 126.226   3
   7   3  10 783.579 96.9786   3
  -7  -3 -10 782.043 99.1352   1
  -7  -3 -11 13.8284 24.3714   2
  -7  -3 -11-16.0246 17.2050   1
  -7  -3 -11-26.6729 33.1153   3
   7  -3  11-4.60109 23.7440   3
  -7  -3 -12 187.085 49.7889   3
   7  -3  12 192.053 68.1816   3
   7   3  13 422.507 84.9006   3
  -7  -3 -13 460.212 86.4427   3
   7  -3  13 535.749 107.986   3
   7   3  14 314.632 75.6072   3
  -7  -3 -14 277.776 69.1245   3
   7  -3  14 283.846 83.0060   3
  -7  -3 -15 1456.04 162.919   3
   7  -3  15 1558.94 190.524   3
   7   3  15 1467.09 171.306   3
   7   3  16 125.916 53.9147   3
  -7  -3 -16 124.185 50.4057   3
   7  -3  16 92.1787 49.9555   3
   7   3  17-16.6950 30.6944   3
   7  -3  17-8.78360 47.7968   3
   7   3  18 18.8232 25.3853   3
   7  -3  18-2.41116 38.5964   3
   7   3  19 631.664 131.711   3
   7  -3  19 718.503 146.175   3
   7   3  20 56.6305 59.3869   3
   7  -3  20 31.4385 55.9129   3
   7   3  21 118.973 75.9605   3
   7  -3  21 108.340 55.0393   3
   7   3  22-20.9701 38.6639   3
   7  -3  22-3.09767 43.8103   3
   7   3  23-2.10071 38.2099   3
   7  -3  23-30.2177 49.9625   3
   7   3  24 71.0878 72.6122   3
   7   3  25 7.97036 49.7058   3
   7   3  26 30.0929 47.6749   3
   7  -4 -26-97.1256 51.3203   2
   7  -4 -25 58.9019 43.5103   2
  -7  -4  24-102.549 81.2046   3
   7  -4 -24 76.3753 46.2545   2
  -7  -4  23 12.8554 53.1105   3
   7   4 -23 30.6411 39.4020   2
   7   4 -22 12.4111 42.3925   2
  -7  -4  22-156.874 84.6513   3
  -7  -4  21 100.025 54.9081   3
   7   4 -21 20.4412 47.1689   2
  -7  -4  20 463.167 127.468   3
   7   4 -20 819.108 160.580   2
  -7  -4  19 857.962 173.555   3
   7   4 -19 783.638 157.583   2
  -7  -4  18 450.634 119.880   3
   7   4 -18 402.300 105.979   2
  -7  -4  17 775.186 155.990   3
   7   4 -17 615.930 129.257   2
  -7  -4  16-58.2076 54.9495   3
   7   4 -16-30.8297 54.1088   2
  -7  -4  15-55.4389 66.5207   3
   7   4 -15-33.1609 47.2925   2
   7   4 -14 6203.37 375.139   2
  -7  -4  14 6451.08 385.355   3
  -7  -4  13 1090.68 153.511   3
   7   4 -13 1190.28 165.332   2
   7   4 -13 1203.38 150.975   3
  -7  -4  12 538.300 102.621   3
   7   4 -12 838.403 138.688   2
   7  -4 -12 450.800 75.3781   2
   7   4 -12 576.894 98.5814   3
  -7  -4  11 245.050 62.8901   3
   7  -4 -11 294.258 81.1484   3
   7  -4 -11 323.698 60.7459   2
   7   4 -11 348.541 85.8382   2
   7   4 -11 248.446 63.2169   3
  -7  -4  10 578.216 97.5661   3
   7  -4 -10 712.812 78.1730   2
   7   4 -10 652.353 111.365   2
   7   4 -10 707.164 102.403   3
   7   4  -9 3372.52 210.787   3
   7  -4  -9 3289.79 162.357   2
   7   4  -9 3481.24 244.805   2
  -7  -4   9 3243.95 220.179   3
  -7  -4   8 144.977 54.8122   2
  -7  -4   8 207.809 52.5095   3
   7  -4  -8 182.962 37.9037   2
   7   4  -8 284.025 71.7014   2
   7   4  -8 184.132 50.9815   3
  -7  -4   7 413.727 73.4260   3
   7  -4  -7 429.432 47.8496   2
  -7  -4   7 458.358 86.6537   2
   7   4  -7 416.988 67.1971   3
  -7  -4   6 548.082 76.3162   3
  -7  -4   6 662.125 101.958   2
   7  -4  -6 577.546 48.1431   2
   7   4  -6 532.292 71.8294   3
  -7  -4   5 340.657 59.8321   3
  -7  -4   5 421.730 80.3719   2
   7  -4  -5 341.685 29.4933   2
   7   4  -5 369.801 54.8373   3
  -7  -4   4 1086.41 93.5234   3
  -7  -4   4 1114.80 129.536   2
   7   4  -4 1139.04 85.9925   3
   7  -4  -4 1096.17 57.6687   1
   7  -4  -3-12.7498 8.65947   1
  -7  -4   3-17.2703 30.3312   2
   7   4  -3-5.75177 10.2203   3
  -7  -4   2 1446.30 140.631   2
   7   4  -2 1301.29 70.4115   3
  -7  -4   1 5004.69 254.421   2
   7   4  -1 4662.54 104.769   3
  -7   4   0 586.910 40.3953   2
   7   4   0 508.620 73.3585   1
  -7  -4   0 640.379 91.6305   2
  -7  -4  -1 5216.96 262.131   2
   7   4   1 5268.19 208.430   1
  -7   4  -1 4933.28 136.851   2
  -7   4  -2 9442.14 206.980   2
  -7  -4  -2 9599.33 355.922   2
   7   4   2 9347.25 287.463   1
   7   4   3 1535.11 122.557   1
  -7   4  -3 1434.10 90.5706   2
  -7  -4  -3 1602.99 149.280   2
   7   4   4 1394.23 122.433   1
  -7  -4  -4 1577.33 149.743   2
   7   4   5 1349.86 125.323   2
  -7  -4  -5 1616.19 153.117   2
   7   4   6 650.482 57.8074   3
   7   4   6 693.149 89.6910   2
  -7  -4  -6 731.024 101.928   2
   7  -4   7 430.751 86.0220   3
   7   4   7 402.619 71.2018   2
  -7  -4  -7 396.983 76.0419   2
  -7  -4  -7 475.092 72.5082   1
   7   4   7 487.584 59.3966   3
   7   4   8 13.2674 17.8127   3
  -7  -4  -8 14.8385 12.4379   3
  -7  -4  -8 8.42014 17.5368   1
  -7  -4  -8 45.6662 30.0858   2
   7  -4   8 12.8167 23.0915   3
   7  -4   9 102.084 52.4396   3
  -7  -4  -9 48.4262 26.7951   1
   7   4   9 83.1583 29.6978   3
  -7  -4  -9 38.2690 20.6097   3
  -7  -4  -9 70.2390 33.9398   2
  -7  -4 -10 445.210 85.5914   2
  -7  -4 -10 485.338 70.2626   3
   7   4  10 474.507 75.3695   3
   7  -4  10 388.742 93.4899   3
  -7  -4 -10 455.293 79.4041   1
   7   4  11-28.4750 32.3869   3
  -7  -4 -11 16.5223 25.0746   3
   7  -4  11-33.9720 38.8355   3
  -7  -4 -11 5.31513 18.9414   2
  -7  -4 -12 131.235 38.9135   3
   7  -4  12 119.795 56.4142   3
   7  -4  13 683.425 127.130   3
  -7  -4 -13 596.375 91.4257   3
   7   4  14 666.271 111.617   3
  -7  -4 -14 676.265 104.438   3
   7  -4  14 591.670 121.310   3
   7   4  15 353.102 85.1533   3
  -7  -4 -15 197.270 58.8426   3
   7  -4  15 301.356 94.9220   3
   7  -4  16 14.1768 34.2265   3
   7   4  16-5.02793 38.7504   3
  -7  -4 -16-3.27875 21.7247   3
   7   4  17 241.473 76.2570   3
   7  -4  17 374.087 109.257   3
   7   4  18-41.7939 37.0528   3
   7  -4  18-11.2179 54.9257   3
   7   4  19 150.069 72.6433   3
   7  -4  19 50.1844 36.9955   3
   7   4  20-81.7090 55.6019   3
   7  -4  20 81.2304 51.7588   3
   7   4  21-139.722 76.9626   3
   7  -4  21 138.240 70.7056   3
   7   4  22 126.602 62.4892   3
   7  -4  22 144.115 90.8674   3
   7   4  23 596.696 149.227   3
   7   4  24 57.5585 64.3106   3
   7   4  25 10.0097 69.7244   3
   7  -5 -24-109.698 51.9787   2
  -7  -5  23-109.333 75.6116   3
  -7  -5  22 23.4502 47.0067   3
   7   5 -22-33.7843 68.5109   2
  -7  -5  21 381.021 119.237   3
   7   5 -21 441.772 118.812   2
  -7  -5  20 84.3375 80.8085   3
   7   5 -20 180.796 89.5682   2
  -7  -5  19 102.412 67.2435   3
   7   5 -19 11.6636 37.2982   2
   7   5 -18 7.03635 42.4871   2
  -7  -5  18-103.879 64.1072   3
  -7  -5  17 120.162 67.7702   3
   7   5 -17 13.6444 36.1067   2
  -7  -5  16 74.9975 63.9036   3
   7   5 -16 125.836 62.5720   2
   7   5 -15 1134.34 169.123   2
  -7  -5  15 1221.62 174.634   3
   7   5 -14 1992.40 225.887   2
  -7  -5  14 1822.85 206.219   3
  -7  -5  13 748.892 131.546   3
   7   5 -13 776.612 127.254   3
   7   5 -13 866.741 144.664   2
   7   5 -12 1637.95 177.195   3
   7  -5 -12 1584.95 126.984   2
   7   5 -12 1529.19 187.569   2
  -7  -5  12 1630.75 183.421   3
  -7  -5  11 116.472 48.7635   3
   7  -5 -11 82.2293 27.9237   2
   7   5 -11 56.1872 37.2644   2
   7   5 -11 53.3597 41.3337   3
   7  -5 -10 1074.87 92.6001   2
   7   5 -10 1174.64 133.771   3
   7   5 -10 1142.51 154.167   2
  -7  -5  10 976.497 126.844   3
  -7  -5   9 117.105 42.8541   3
   7  -5  -9 165.319 36.1844   2
   7   5  -9 175.498 56.4931   2
   7   5  -9 187.952 53.8520   3
  -7  -5   8 9376.77 414.205   2
   7  -5  -8 9151.01 214.510   2
   7   5  -8 8325.97 380.564   2
   7   5  -8 8864.67 330.965   3
  -7  -5   8 8133.43 334.184   3
   7  -5  -7 139.883 29.8070   1
  -7  -5   7 156.302 47.4529   3
  -7  -5   7 172.793 56.1413   2
   7  -5  -7 153.212 22.7065   2
   7   5  -7 181.805 64.0723   2
   7   5  -7 134.449 38.6828   3
   7  -5  -7 160.260 23.2230   2
   7   5  -6 60.2532 37.6069   2
  -7  -5   6 90.7517 30.5772   3
  -7  -5   6 139.761 50.2128   2
   7  -5  -6 128.696 26.7328   1
   7   5  -6 95.7011 29.1244   3
  -7  -5   5 35.0936 21.6576   2
   7  -5  -5 49.9214 15.2284   1
  -7  -5   5 42.8994 23.1544   3
   7   5  -5 2.46636 31.8146   2
   7   5  -5 33.9802 18.0556   3
  -7  -5   4 301.832 51.6138   3
  -7  -5   4 267.605 73.3106   2
   7   5  -4 257.981 41.8961   3
   7   5  -4 285.808 66.8820   2
  -7  -5   3 1470.77 94.3522   3
  -7  -5   3 1283.49 142.133   2
   7   5  -3 1312.84 136.041   2
   7   5  -3 1239.49 81.1369   3
   7   5  -2-15.1998 34.0751   2
  -7  -5   2 11.8854 27.4145   2
  -7  -5   1 9817.84 386.283   2
   7   5  -1 9080.26 351.335   2
   7   5   0 11.1763 23.4996   2
  -7  -5   0-32.5169 25.4534   2
   7   5   0 0.85270 20.2492   1
   7   5   1 1829.78 154.392   2
  -7   5  -1 1700.01 70.6759   2
  -7   5  -1 1813.49 63.2204   1
  -7  -5  -1 2179.74 177.691   2
   7   5   1 1861.92 134.379   1
   7   5   2 462.249 77.8291   2
  -7   5  -2 523.499 34.3071   1
  -7   5  -2 485.623 44.0696   2
   7   5   2 618.347 81.6800   1
  -7  -5  -2 485.685 86.2379   2
   7   5   3 2494.31 164.353   1
   7   5   3 2667.37 184.681   2
  -7  -5  -3 2730.67 200.829   2
  -7   5  -3 2650.81 116.336   2
  -7  -5  -4 219.147 62.2203   2
   7   5   4 227.056 50.7036   1
   7   5   4 158.085 46.8682   2
   7   5   5 41.6922 23.8366   2
  -7  -5  -5 78.8678 33.3820   2
   7   5   5 44.0666 34.2944   1
   7   5   6 198.702 52.8084   2
  -7  -5  -6 209.714 60.0813   2
   7  -5   6 188.854 64.6201   3
  -7  -5  -7 3.59877 22.6743   1
  -7  -5  -7 34.2788 32.8808   2
   7   5   7 28.1694 27.4034   2
   7  -5   7 18.3709 25.8314   3
  -7  -5  -8 225.987 36.5640   3
  -7  -5  -8 222.710 62.8401   2
   7  -5   8 184.257 68.3176   3
  -7  -5  -9 3229.94 238.462   2
   7  -5   9 2875.90 238.012   3
  -7  -5  -9 3249.16 153.252   3
  -7  -5 -10 567.057 70.9021   3
  -7  -5 -10 576.507 102.711   2
   7  -5  10 601.021 113.464   3
  -7  -5 -11 179.446 40.1995   3
   7  -5  11 191.722 75.2146   3
  -7  -5 -12 163.653 47.0905   3
   7  -5  12 132.964 61.3177   3
  -7  -5 -13 5.10954 15.4853   3
   7  -5  13 50.0896 36.8172   3
  -7  -5 -14 158.581 51.3401   3
   7  -5  14 168.150 76.8168   3
  -7  -5 -15 56.5877 35.6834   3
   7  -5  15 87.5670 57.1962   3
   7  -5  16-64.8947 54.2513   3
  -7  -5 -16-11.7674 25.8555   3
   7  -5  17 58.4965 59.7181   3
   7  -5  18 843.798 159.245   3
   7  -5  19-55.2212 69.4330   3
   7  -5  20 169.452 82.2771   3
   7  -5  21-1.73974 41.2845   3
  -7  -6  22 17.1449 50.9511   3
  -7  -6  21 2.68336 49.9843   3
   7   6 -21 18.4211 46.5176   2
  -7  -6  20 30.1654 48.3574   3
   7   6 -20 135.262 84.4637   2
  -7  -6  19-7.71090 33.5030   3
   7   6 -19-12.5697 43.1520   2
  -7  -6  18 25.9831 39.3583   3
   7   6 -18-43.6170 68.0619   2
  -7  -6  17-1.16712 48.7420   3
   7   6 -17 68.8204 64.5600   2
  -7  -6  16 140.063 63.4839   3
   7   6 -16 90.5213 56.9144   2
  -7  -6  15 935.633 157.369   3
   7   6 -15 1232.99 186.411   2
  -7  -6  14 218.420 76.4026   3
   7   6 -14 291.940 96.4761   2
  -7  -6  13-18.0872 49.8581   3
   7  -6 -13 21.9492 23.0601   2
   7   6 -13-9.23609 51.1409   2
   7  -6 -12 2048.50 138.130   2
   7   6 -12 1828.80 211.613   2
   7   6 -12 1975.10 199.708   3
   7  -6 -12 1885.55 116.817   2
  -7  -6  12 2225.40 214.993   3
   7  -6 -11 1270.90 119.595   1
   7  -6 -11 1588.46 112.729   2
   7   6 -11 1406.32 181.520   2
   7   6 -11 1511.90 165.039   3
   7  -6 -11 1561.83 97.8187   2
  -7  -6  11 1458.62 164.775   3
  -7  -6  10 280.470 72.2729   3
   7  -6 -10 279.398 37.3055   2
   7  -6 -10 269.050 43.1567   2
   7   6 -10 278.358 67.9010   3
   7   6 -10 166.728 58.4535   2
   7  -6  -9 866.234 65.2325   2
   7  -6  -9 931.445 59.9714   2
   7   6  -9 833.145 112.599   3
   7   6  -9 966.814 140.000   2
  -7  -6   9 818.849 115.221   3
   7  -6  -8 1640.70 57.9218   2
   7   6  -8 1286.29 158.453   2
   7   6  -8 1312.50 132.337   3
   7  -6  -8 1513.16 108.090   1
  -7  -6   8 1427.43 144.464   3
  -7  -6   7 761.270 124.291   2
   7   6  -7 843.942 98.9990   3
   7  -6  -7 717.551 69.1096   1
   7   6  -7 743.947 121.672   2
  -7  -6   7 840.396 101.494   3
  -7  -6   6 200.108 50.1185   3
  -7  -6   6 110.563 40.8479   2
   7   6  -6 145.636 39.7377   3
   7  -6  -6 123.433 28.7606   1
   7   6  -6 133.767 50.9734   2
  -7  -6   5 25.1926 21.6789   3
  -7  -6   5-42.0728 42.3971   2
   7   6  -5-5.89604 18.1968   3
   7   6  -5 16.0413 32.1024   2
   7   6  -4 42.9804 28.1186   2
  -7  -6   4 95.1670 29.9417   3
  -7  -6   4 95.9871 44.9231   2
   7   6  -3 34.9147 41.6646   2
  -7  -6   3 22.9718 12.6944   3
  -7  -6   3-26.5207 38.6287   2
  -7  -6   2 5.20404 28.8760   2
  -7  -6   2 30.7900 9.39613   3
   7   6  -2 10.0994 27.1476   2
   7   6  -1 231.887 63.8999   2
  -7  -6   1 279.276 69.4540   2
   7   6   0 4443.03 222.455   1
  -7  -6   0 4201.05 265.678   2
   7   6   0 4636.60 259.002   2
  -7   6  -1 99.2151 14.6413   2
  -7   6  -1 183.152 26.9077   1
   7   6   1 144.742 50.9153   2
  -7  -6  -1 218.857 63.1785   2
   7   6   1 161.191 45.7440   1
   7   6   2 644.763 90.4720   1
  -7   6  -2 511.607 51.7427   2
   7   6   2 550.510 86.3443   2
  -7   6  -2 541.535 44.2073   2
  -7   6  -2 550.632 43.8359   1
  -7  -6  -2 545.201 94.5465   2
  -7   6  -3 7.08462 16.0572   2
   7   6   3-1.47453 27.5004   1
   7   6   3 11.7469 24.6844   2
  -7  -6  -3 3.25636 23.2583   2
  -7  -6  -4 825.845 119.209   2
   7   6   4 579.349 90.4562   1
   7   6   4 891.569 111.533   2
  -7  -6  -5 36.7750 25.5718   2
   7   6   5 35.8914 36.3524   2
   7   6   5 74.9702 48.9414   1
  -7  -6  -6 608.534 104.796   2
   7   6   6 555.619 88.7033   2
   7  -6   6 561.811 104.332   3
  -7  -6  -7 417.084 89.3912   2
   7   6   7 405.675 75.5364   2
   7  -6   7 314.989 75.8469   3
   7  -6   8 984.706 152.020   3
  -7  -6  -8 1129.05 145.933   2
  -7  -6  -8 1254.33 70.6496   3
  -7  -6  -9 84.9090 25.0021   3
   7  -6   9 22.6836 34.4163   3
   7  -6  10 37.0866 35.0132   3
  -7  -6 -10 48.4189 22.0994   3
   7  -6  11 277.689 79.0532   3
  -7  -6 -11 190.008 43.2360   3
  -7  -6 -12 18.0618 14.3107   3
   7  -6  12-27.4950 40.0314   3
  -7  -6 -13 15.3469 22.0986   3
   7  -6  13 20.7483 34.1497   3
   7  -6  14 1729.53 213.478   3
   7  -6  15 1489.88 204.865   3
   7  -6  16 536.149 119.620   3
   7  -6  17 58.9603 47.2882   3
   7  -6  18 50.3412 70.3872   3
   7  -6  19-56.9013 67.1546   3
   7  -6  20 153.314 94.3926   3
  -7  -7  22 62.2161 67.5469   3
  -7  -7  21 12.6338 30.1309   3
  -7  -7  20 224.303 116.953   3
   7   7 -20 136.452 83.1803   2
  -7  -7  19 4.14657 49.4932   3
   7   7 -19-96.4433 66.3744   2
  -7  -7  18-10.0235 32.8284   3
   7   7 -18 79.8847 63.1876   2
  -7  -7  17 305.994 108.305   3
   7   7 -17 163.602 86.0203   2
  -7  -7  16 24.5108 32.9923   3
   7   7 -16 30.8739 44.3211   2
   7  -7 -15 37.7505 23.1802   2
   7   7 -15-14.7825 32.4756   2
  -7  -7  14 79.7119 49.7137   3
   7  -7 -14 97.8257 34.5631   2
   7   7 -14 92.6064 60.1163   2
   7  -7 -13 1697.56 124.408   2
   7   7 -13 1506.57 197.324   2
   7  -7 -13 1315.42 130.802   1
  -7  -7  13 1526.24 187.632   3
  -7  -7  12 259.686 82.5322   3
   7   7 -12 102.898 39.4807   3
   7  -7 -12 154.190 34.8783   2
   7  -7 -12 181.210 47.2289   1
   7   7 -12 142.719 50.5182   2
  -7  -7  11 57.8015 47.4215   3
   7  -7 -11-10.5513 9.16522   2
   7  -7 -11 11.0564 21.6183   1
   7  -7 -11 5.42669 9.61509   2
   7   7 -11-17.6626 31.7826   3
   7   7 -11 8.25175 30.5250   2
  -7  -7  10 12.8869 40.1440   3
   7  -7 -10 9.93767 14.5415   1
   7  -7 -10 15.7874 8.82414   2
   7   7 -10 12.9268 24.5520   3
   7  -7 -10 11.7712 11.1546   2
   7   7 -10-1.33713 37.8117   2
  -7  -7   9-19.6458 37.7950   3
   7   7  -9 7.95778 39.5665   2
   7   7  -9-18.4505 26.7599   3
  -7  -7   8 17.6863 33.8575   3
   7   7  -8 19.5102 34.4482   2
  -7  -7   7 24.7666 26.7924   3
   7   7  -7-53.8561 54.4179   2
  -7  -7   6 153.949 41.1447   3
   7   7  -6 177.285 59.6222   2
  -7  -7   5 7792.13 401.580   2
   7   7  -5 7358.11 367.024   2
  -7  -7   5 7865.83 281.719   3
  -7  -7   4 230.875 45.0450   3
   7   7  -4 240.009 69.5294   2
  -7  -7   4 348.812 88.2760   2
  -7  -7   3 20.6450 11.0230   3
   7   7  -3 58.5504 41.0155   2
  -7  -7   3 76.8430 49.4534   2
  -7  -7   2 1251.08 154.004   2
   7   7  -2 1090.94 137.416   2
  -7  -7   2 1166.41 77.0796   3
  -7  -7   1 1171.86 152.268   2
   7   7  -1 1311.35 133.084   1
   7   7  -1 920.128 125.330   2
   7   7   0 265.579 65.5801   1
   7   7   0 251.040 70.1861   2
  -7  -7   0 79.6602 33.8105   2
   7   7   1 2731.08 206.872   2
  -7  -7  -1 2668.21 221.228   2
  -7   7  -1 2447.97 112.553   1
   7   7   1 2829.99 191.755   1
  -7   7  -2 2327.72 93.5161   2
  -7  -7  -2 2347.29 206.514   2
  -7   7  -2 2195.13 79.1547   2
  -7   7  -2 2458.98 107.736   1
   7   7   2 2466.82 186.354   1
   7   7   2 2267.83 188.237   2
   7   7   3 38.3768 36.6290   1
  -7   7  -3 9.36751 13.3797   1
  -7   7  -3 42.5369 19.8119   2
   7   7   3 38.8996 33.9381   2
  -7  -7  -3 43.5979 30.4799   2
  -7   7  -4 1528.81 110.035   2
   7   7   4 1426.89 144.443   2
  -7  -7  -4 1397.09 163.698   2
   7   7   4 1497.94 151.377   1
   7   7   5 11.0037 23.4471   2
  -7   7  -5 18.1795 25.4996   2
   7  -7   5 45.8369 50.1442   3
   7   7   5 9.64579 29.2081   1
  -7  -7  -5-9.96677 21.1362   2
  -7  -7  -6 324.034 80.8842   2
   7   7   6 208.631 61.7863   2
  -7   7  -6 215.243 54.4913   2
   7  -7   6 270.632 77.0567   3
   7   7   7 449.917 84.0824   2
   7  -7   7 394.914 96.3445   3
   7  -7   8 1481.35 185.510   3
  -7  -7  -9 1164.40 68.0668   3
   7  -7   9 1169.08 161.751   3
   7  -7  10 0.47314 47.3628   3
  -7  -7 -10 47.8799 17.4649   3
   7  -7  11 277.089 82.1947   3
   7  -7  12 250.708 95.0321   3
   7  -7  13 1515.97 204.577   3
   7  -7  14 166.714 76.1613   3
   7  -7  15 106.154 56.2795   3
   7  -7  16 38.6094 49.4409   3
   7  -7  17 65.8473 59.4147   3
   7  -7  18-43.6688 50.4745   3
   7  -7  19 251.387 93.1198   3
  -7  -8  21 0.40661 34.2652   3
  -7  -8  20-86.6716 65.7048   3
  -7  -8  19 43.6522 34.4891   3
   7   8 -19 20.3790 48.3029   2
  -7  -8  18 57.0330 56.7114   3
   7   8 -18-51.0004 60.1024   2
  -7  -8  17-34.2002 55.1450   3
   7   8 -17 149.073 60.8625   2
  -7  -8  16 141.190 89.2955   3
   7   8 -16 86.3228 55.0904   2
  -7  -8  15 119.250 65.2973   3
   7   8 -15 131.003 76.9512   2
  -7  -8  14 179.304 73.0909   3
   7   8 -14-11.0024 41.8999   2
  -7  -8  13 175.455 70.1420   3
   7   8 -13 90.1052 58.4976   2
  -7  -8  12 881.279 139.580   3
   7  -8 -12 560.502 80.1037   1
   7   8 -12 864.158 154.478   2
  -7  -8  11-2.56087 33.9958   3
   7  -8 -11 33.3492 21.3109   1
   7   8 -11 34.0162 42.9283   2
   7  -8 -10 40.7915 25.7919   1
  -7  -8  10 138.133 58.7629   3
   7   8 -10 212.413 78.0855   2
  -7  -8   9 97.6645 40.1539   3
   7   8  -9 121.369 57.3866   2
  -7  -8   8 45.3931 31.5195   3
   7   8  -8-59.5454 42.6884   2
  -7  -8   7 94.2017 44.0985   3
   7   8  -7 24.3001 35.5605   2
   7   8  -6 1879.10 198.823   2
  -7  -8   6 1957.55 152.554   3
  -7  -8   5 97.3957 37.2618   3
   7   8  -5 109.016 45.4537   2
  -7  -8   4 441.237 60.9908   3
   7   8  -4 384.171 88.4086   2
   7   8  -3 663.465 113.917   2
  -7  -8   3 712.217 71.7293   3
   7   8  -2 1878.69 169.064   1
   7   8  -2 1524.08 167.227   2
  -7  -8   2 1671.73 90.9775   3
   7   8  -1 319.026 76.6124   2
   7   8  -1 352.586 72.3588   1
   7   8   0 837.281 123.659   2
  -7  -8   0 845.283 132.849   2
   7   8   0 949.093 122.475   1
   7   8   1 230.292 64.6119   1
   7   8   1 338.999 79.1865   2
  -7  -8  -1 309.988 79.1025   2
  -7   8  -1 323.807 47.2879   1
  -7   8  -2 159.621 32.2949   1
  -7  -8  -2 67.5637 47.2499   2
   7   8   2 160.565 56.4843   1
   7   8   2 136.446 57.1388   2
   7   8   3 1289.20 148.979   1
   7   8   3 1500.89 159.201   2
  -7   8  -3 1328.96 91.8720   1
  -7   8  -3 1211.11 68.8100   2
   7   8   4 109.406 35.2523   2
   7   8   4 96.0115 51.2271   1
  -7   8  -4 127.605 34.9590   2
  -7   8  -4 79.7904 27.1761   1
  -7   8  -5 3141.61 169.769   2
   7   8   5 2513.95 201.391   2
   7  -8   5 2241.97 223.418   3
   7   8   5 2723.71 225.198   1
   7   8   6 76.5150 31.9294   2
  -7   8  -6 148.239 41.5823   2
   7  -8   6 125.384 64.4443   3
   7   8   7-2.05834 19.1083   2
   7  -8   7 3.90208 50.1616   3
  -7   8  -8 63.4096 35.7437   2
   7  -8   8 94.2956 66.7417   3
  -7   8  -9 125.233 46.0216   2
   7  -8   9 189.449 69.7142   3
  -7   8 -10 50.7220 32.7916   2
   7  -8  10-39.2445 48.3495   3
  -7   8 -11-44.4150 31.5856   2
   7  -8  11-45.4831 44.7261   3
   7  -8  12 284.014 94.1271   3
  -7   8 -12 218.385 68.3317   2
  -7   8 -13 29.1583 33.1723   2
   7  -8  13-38.1270 63.3216   3
  -7   8 -14 237.638 73.4582   2
   7  -8  14 355.725 115.957   3
  -7   8 -15 66.6495 35.5850   2
   7  -8  15 25.0224 43.6073   3
   7  -8  16 252.729 91.3136   3
  -7   8 -16 267.885 68.8542   2
  -7   8 -17-20.9338 35.8318   2
   7  -8  17 88.0118 69.0935   3
  -7   8 -18 27.1063 50.0709   2
  -7   8 -19 15.7664 32.3003   2
  -7   8 -20 123.032 78.7019   2
  -7  -9  20 3.15798 58.3049   3
  -7  -9  19-262.341 104.089   3
  -7  -9  18-28.8665 50.5178   3
  -7  -9  17 112.722 54.1940   3
   7   9 -17 61.7906 64.5674   2
  -7  -9  16 55.8282 40.9915   3
   7   9 -16-11.2032 56.9211   2
  -7  -9  15 178.082 69.2566   3
   7   9 -15 229.924 83.0136   2
  -7  -9  14 39.0196 42.9112   3
   7   9 -14-19.0051 37.0434   2
  -7  -9  13-19.7048 44.6330   3
   7   9 -13-58.3731 53.6335   2
  -7  -9  12 52.6426 33.4795   3
   7   9 -12 68.1919 38.1884   2
  -7  -9  11-21.1887 28.4355   3
   7   9 -11-20.7116 40.3529   2
  -7  -9  10 26.7576 36.0990   3
   7   9 -10 8.76416 37.9060   2
  -7  -9   9 417.608 88.0746   3
   7   9  -9 368.830 100.009   2
   7   9  -8 1750.19 207.986   2
  -7  -9   8 1764.42 166.365   3
   7   9  -7 907.494 147.911   2
  -7  -9   7 975.382 116.794   3
   7   9  -6 1107.48 157.979   2
  -7  -9   6 1403.06 132.784   3
  -7  -9   5 22.6285 23.6762   3
   7   9  -5-7.68506 24.1188   2
  -7  -9   4 22.7896 14.9950   3
   7   9  -4 56.0228 49.3526   2
   7   9  -3 860.982 134.415   2
   7   9  -3 992.378 131.018   1
  -7  -9   3 866.929 80.9137   3
   7   9  -2 799.418 130.197   2
   7   9  -2 872.005 123.763   1
  -7  -9   2 895.646 68.6298   3
   7   9  -1 570.280 111.038   2
   7   9  -1 711.293 107.571   1
   7   9   0 4.30694 39.1296   1
   7   9   0-23.0976 33.8303   2
   7   9   1 7.59755 29.0840   2
   7   9   1 27.0354 28.2508   1
  -7   9  -2 300.316 48.8511   1
   7   9   2 239.160 61.9893   1
   7   9   2 249.089 63.7712   2
  -7   9  -3 105.460 16.6143   2
  -7   9  -3 141.141 23.8664   2
   7   9   3 194.679 63.8610   1
  -7   9  -3 183.652 39.7204   1
   7   9   3 90.9210 38.0448   2
   7   9   4 19.6146 25.1373   2
   7  -9   4-25.3720 30.4871   3
  -7   9  -4-32.9114 22.6235   1
  -7   9  -4-4.83508 9.60785   2
   7   9   4-2.91342 28.9782   1
  -7   9  -5 1272.23 102.215   1
   7   9   5 892.008 124.944   2
  -7   9  -5 993.438 92.7275   2
   7  -9   5 984.968 151.376   3
   7   9   6 384.933 82.6409   2
  -7   9  -6 369.380 63.3733   2
   7  -9   6 373.062 107.063   3
   7  -9   7 268.486 88.1931   3
   7   9   7 228.043 63.9470   2
  -7   9  -8 37.3811 34.8541   2
   7  -9   8 146.097 59.3554   3
  -7   9  -9-0.30972 29.1416   2
   7  -9   9 27.9170 42.3406   3
  -7   9 -10 42.2525 34.8442   2
   7  -9  10 74.3540 55.0871   3
  -7   9 -11-60.5875 44.9863   2
   7  -9  11-14.1724 48.0544   3
  -7   9 -12 90.9592 41.8066   2
   7  -9  12 167.817 82.2826   3
  -7   9 -13 25.4091 35.7900   2
   7  -9  13 14.1277 33.8993   3
  -7   9 -14 110.822 57.5468   2
   7  -9  14 8.27925 42.8956   3
  -7   9 -15-26.4689 34.1660   2
   7  -9  15-22.8591 37.9979   3
  -7   9 -16 27.7908 42.9406   2
   7  -9  16-192.216 89.5295   3
  -7   9 -17-59.5923 47.3986   2
  -7   9 -18 46.8803 53.2623   2
  -7   9 -19-162.612 74.3793   2
   7  10 -16 77.2717 75.2495   2
   7  10 -15-11.2324 36.3213   2
   7  10 -14 134.253 69.7254   2
   7  10 -13 45.6953 48.1583   2
   7  10 -12 42.2633 58.3020   2
   7  10 -11 86.7758 62.3685   2
   7  10 -10 67.4298 68.8575   2
   7  10  -9 11.7196 36.0345   2
   7  10  -8 21.7005 25.0725   2
   7  10  -7 82.4815 46.8718   2
   7  10  -6 143.034 59.6805   2
   7  10  -5 120.347 56.6045   2
   7  10  -4 45.6284 30.8311   2
   7  10  -4-26.8424 38.3251   1
   7  10  -3 13.9150 25.2958   2
   7  10  -3-4.99857 25.6150   1
   7  10  -2 1284.21 165.951   2
   7  10  -2 1266.40 151.077   1
   7  10  -1 24.3177 33.7969   2
   7  10  -1 19.4095 29.9697   1
   7  10   0 198.800 65.9538   1
   7  10   0 247.445 73.9499   2
   7  10   1 339.434 79.5585   1
   7  10   1 258.683 68.9578   2
   7  10   2 118.440 57.9713   1
   7  10   2 138.071 56.6389   2
   7  10   3-23.3432 35.4836   2
   7  10   3 27.9852 35.7107   1
   7 -10   3-28.8314 35.9111   3
   7  10   4 19.5329 19.2825   2
   7 -10   4 62.7975 42.0418   3
   7  10   4 115.048 54.5928   1
   7  10   5 72.9605 44.7702   2
   7 -10   5 70.9212 55.6783   3
   7  10   6 19.6895 26.3532   2
   7 -10   6 23.6547 34.9138   3
   7  10   7 62.6538 48.0691   2
   7 -10   7-75.0321 43.4763   3
   7 -10   8-19.9973 44.3253   3
   7 -10   9 132.447 60.7119   3
   7 -10  10 148.699 71.8765   3
   7 -10  11 264.033 101.500   3
   7 -10  12-4.48867 35.4759   3
   7 -10  13 23.1691 43.3935   3
   7 -10  14-82.8542 68.4933   3
   7  11 -14 85.8890 72.6992   2
   7  11 -13-87.5221 58.2201   2
   7  11 -12 43.1223 43.5496   2
   7  11 -11 25.6213 40.2775   2
   7  11 -10-0.29421 33.8463   2
   7  11  -9-73.4497 58.4738   2
   7  11  -8-27.5185 35.9334   2
   7  11  -7 56.6629 49.7146   2
   7  11  -6 24.0085 41.7166   2
   7  11  -6 55.1418 35.6799   1
   7  11  -5 6.97392 30.3158   2
   7  11  -5 32.7253 30.7353   1
   7  11  -4 123.638 59.3746   1
   7  11  -4 94.3120 57.2057   2
   7  11  -3 45.9516 34.6386   2
   7  11  -3 60.2605 27.5200   1
   7  11  -2-19.0568 40.3416   2
   7  11  -2 13.8393 33.7507   1
   7  11  -1 90.7265 56.9765   1
   7  11  -1 43.2628 25.6421   2
   7  11   0-131.200 61.5929   1
   7  11   0-122.591 58.6427   2
   7  11   1 7.56761 35.7691   1
   7  11   1 32.4158 39.8339   2
   7  11   2 249.635 78.0938   2
   7  11   2 294.463 79.9976   1
   7 -11   2 171.329 70.6392   3
   7  11   3 50.1359 50.0582   1
   7 -11   3 229.040 93.6275   3
   7  11   3 103.435 47.7682   2
   7  11   4-47.5528 30.9652   2
   7 -11   4 59.6369 49.3020   3
   7  11   5 7.44231 24.8387   2
   7 -11   5-89.7016 57.2139   3
   7  11   6 66.8435 40.7985   2
   7 -11   6 8.49629 39.0608   3
   7 -11   7 37.7929 48.6950   3
   7 -11   8-71.1740 56.4317   3
   7 -11   9 11.4516 35.9519   3
   7 -11  10 47.0759 34.9177   3
   7 -11  11-99.1323 64.4863   3
   7  12 -12 25.6804 37.5861   2
   7  12 -11-97.0973 59.8646   2
   7  12 -10 283.478 102.469   2
   7  12  -9 24.6702 42.5630   2
   7  12  -8 146.865 75.5124   2
   7  12  -7-24.0989 35.7097   2
   7  12  -7 9.83397 25.9780   1
   7  12  -6 17.8726 28.0141   1
   7  12  -6-28.2532 32.4861   2
   7  12  -5 79.5598 49.8634   1
   7  12  -5-0.52517 29.5084   2
   7  12  -4 187.400 76.0253   2
   7  12  -4 65.8466 43.8408   1
   7  12  -3 278.795 83.6074   1
   7  12  -3 100.724 60.4729   2
   7  12  -2 208.442 76.0795   2
   7  12  -2 193.627 70.1193   1
   7  12  -1 36.1747 38.3750   1
   7  12  -1 59.1336 44.0020   2
   7  12   0 5.87246 49.2106   1
   7 -12   0 30.5512 37.4333   3
   7  12   0 0.22671 35.1428   2
   7  12   1-21.6234 26.6541   2
   7  12   1-9.16976 39.4804   1
   7 -12   1 31.8384 55.3379   3
   7  12   2-87.1507 51.6842   1
   7  12   2 5.37844 26.5467   2
   7 -12   2-78.2887 53.7351   3
   7 -12   3-28.1817 39.9068   3
   7 -12   4 102.890 81.8289   3
   7 -12   5-55.3678 49.4368   3
   7 -12   6 71.9352 73.7567   3
   7 -12   7 655.964 154.042   3
   7 -12   8 6.31577 36.7691   3
   8   0 -25 0.28911 33.3053   2
   8   0 -24 796.306 163.559   2
   8   0 -23 9.14450 33.9444   2
   8   0 -22 231.441 84.0324   2
   8   0 -21-51.0013 50.6207   2
   8   0 -20 75.0613 61.8447   2
   8   0 -19-47.9008 46.5308   2
   8   0 -18 1466.58 177.891   2
   8   0 -17-10.1855 43.7122   2
   8   0 -16 416.867 92.7759   2
   8   0 -15 28.2191 40.7214   2
   8   0 -14 2621.80 219.107   2
   8   0 -13-25.9926 38.6862   3
   8   0 -13 13.3056 33.3924   2
   8   0 -12 346.836 80.9867   3
   8   0 -12 411.715 83.1307   2
   8   0 -11 7.42070 20.2944   3
   8   0 -11-38.7100 28.2305   2
   8   0 -10 227.686 56.8813   3
   8   0 -10 212.602 56.6599   2
   8   0  -9-19.4139 26.6543   3
   8   0  -9-48.3067 35.4507   2
   8   0  -8 485.253 88.2044   3
   8   0  -8 492.702 75.7656   2
   8   0  -7 24.2960 30.7093   2
   8   0  -7 7.57290 21.1612   3
  -8   0   7 4.67309 23.6626   2
  -8   0   6 39.3618 27.7374   2
   8   0  -6 54.8681 32.6932   2
  -8   0   5-29.6720 29.5688   2
   8   0  -5-42.1302 32.1627   2
  -8   0   4 940.592 95.4721   2
   8   0  -4 932.404 90.8280   2
   8   0  -3 9.37634 18.4498   2
  -8   0   3 37.1944 26.6080   2
  -8   0   2 67.1882 26.9826   2
   8   0  -2 65.2342 29.0307   2
   8   0  -1 23.6100 19.2171   2
  -8   0   1 5.64827 13.9628   2
   8   0   0 3011.33 153.452   2
   8   0   0 3199.25 111.288   1
  -8   0   0 3002.11 160.483   2
  -8   0  -1-23.2685 21.0801   2
   8   0   1 1.43124 14.6800   1
   8   0   1 3.62575 17.3293   2
  -8   0  -2 2014.98 135.757   2
   8   0   2 2011.62 126.480   2
   8   0   2 2078.67 105.810   1
  -8   0  -3-3.73557 12.7175   1
   8   0   3-5.53720 22.5482   2
  -8   0  -3 2.90018 21.8093   2
  -8   0  -4 81776.3 694.397   1
  -8   0  -4 82374.6 902.471   2
   8   0   4 82664.8 843.112   2
   8   0   5 15.6989 28.3905   3
  -8   0  -5 18.9015 20.7341   1
  -8   0  -5 47.4367 20.7528   2
  -8   0  -6 61347.4 813.099   2
  -8   0  -6 56745.6 660.326   1
   8   0   6 57814.3 770.492   3
   8   0   7 14.1987 25.9687   3
  -8   0  -7-14.9006 25.6661   2
  -8   0  -8 12951.7 400.642   2
  -8   0  -9 1.88867 14.9116   2
   8   0  10 1966.30 169.572   3
  -8   0 -10 2281.66 180.733   2
  -8   0 -11-11.5787 19.9714   2
   8   0  11-35.5196 38.9789   3
  -8   0 -12 25.3307 17.5229   2
   8   0  12 33.6000 35.3646   3
   8   0  13 53.6415 44.4089   3
  -8   0 -14 203.170 70.2324   3
   8   0  14 250.967 73.9621   3
   8   0  15-25.6027 49.4319   3
   8   0  16 205.577 74.6641   3
   8   0  17 53.7011 33.1035   3
   8   0  18-20.8257 40.9167   3
   8   0  19 179.850 73.3466   3
   8   0  20 68.3053 66.6853   3
   8   0  21-1.53542 40.6628   3
   8   0  22 126.005 66.7945   3
   8   0  23-41.8455 46.5041   3
   8   0  24 76.3408 50.4101   3
   8  -1 -25 45.7814 47.3844   2
   8   1 -25 59.1783 50.7976   2
   8  -1 -24-141.414 67.0085   2
   8   1 -24 24.7595 44.1997   2
   8  -1 -23 6.73070 35.9002   2
   8   1 -23-11.0184 39.6958   2
   8  -1 -22 91.3603 58.0572   2
   8   1 -22-2.50131 29.6781   2
   8  -1 -21 51.0775 42.2963   2
   8   1 -21 21.0065 49.6773   2
   8  -1 -20-15.6449 35.5940   2
   8   1 -20 115.796 61.4760   2
   8  -1 -19 382.909 89.6988   2
   8   1 -19 397.958 100.307   2
   8  -1 -18 881.404 134.968   2
   8   1 -18 1109.00 163.600   2
   8  -1 -17 2123.37 206.945   2
   8   1 -17 2144.89 219.498   2
   8  -1 -16 25.4367 37.0712   2
   8   1 -16 25.6131 36.4969   2
   8  -1 -15 213.855 66.0129   2
   8   1 -15 261.400 83.7016   2
   8  -1 -14 84.1816 36.4715   2
   8   1 -14 185.745 74.4523   2
   8  -1 -13 129.734 62.2450   3
   8  -1 -13 134.578 54.6089   2
   8   1 -13 143.919 64.1343   2
   8   1 -13 68.1188 36.1666   3
   8  -1 -12 3696.10 231.162   2
   8   1 -12 3325.72 239.980   2
   8   1 -12 4043.83 269.845   3
   8  -1 -12 3771.79 275.570   3
   8   1 -11 459.025 87.2658   3
   8  -1 -11 523.258 99.0067   3
   8  -1 -11 501.395 82.0239   2
   8   1 -11 435.509 85.5698   2
   8   1 -10 42.1161 29.3361   3
   8  -1 -10 22.0109 37.4918   3
   8  -1 -10-8.06200 32.8082   2
   8   1 -10 21.5113 35.9529   2
   8  -1  -9 2193.64 197.968   3
   8  -1  -9 2154.91 155.371   2
   8   1  -9 1977.29 166.921   2
   8   1  -9 2287.43 183.570   3
   8  -1  -8 4930.10 291.314   3
   8  -1  -8 4688.00 221.579   2
   8   1  -8 4688.16 247.573   2
   8   1  -8 4877.61 260.278   3
   8   1  -7 91.5783 36.6134   3
  -8  -1   7 50.6042 27.2768   2
   8  -1  -7 64.4213 31.4700   2
   8   1  -7 80.9504 38.5342   2
  -8   1   6 4738.91 204.917   2
  -8  -1   6 4616.06 236.330   2
   8  -1  -6 4675.21 202.927   2
   8   1  -6 4830.04 235.423   2
   8   1  -6 4918.74 245.423   3
   8   1  -5 44.0218 29.0839   3
  -8   1   5 24.4480 24.2934   2
  -8  -1   5 45.6297 29.8199   2
   8   1  -5-7.60146 21.6827   2
   8  -1  -5 51.3257 24.2385   2
  -8   1   4 5.88919 18.1045   2
  -8  -1   4-25.5135 28.9242   2
   8   1  -4 18.3203 25.7310   2
   8  -1  -4 13.9428 19.2821   2
   8  -1  -3 83.0079 28.2104   2
  -8  -1   3 90.4853 35.1956   2
  -8   1   3 76.2365 25.1367   2
   8   1  -3 51.4159 24.8837   2
  -8   1   2 2927.75 144.975   2
  -8  -1   2 2969.58 171.011   2
   8   1  -2 2923.81 168.685   2
   8  -1  -2 2993.94 144.211   2
   8  -1  -1 7846.97 227.926   2
  -8  -1   1 7199.95 264.421   2
  -8   1   1 6953.78 227.949   2
   8   1  -1 7779.08 271.251   2
   8   1   0 6824.55 251.320   2
   8   1   0 8282.10 204.117   1
   8  -1   0 7422.23 221.018   2
  -8  -1   0 7394.68 268.896   2
   8  -1   0 7222.06 142.482   1
  -8   1   0 7133.96 227.476   2
   8  -1   1 5812.23 197.579   2
   8   1   1 5825.40 174.557   1
  -8  -1  -1 6200.64 249.177   2
  -8   1  -1 5766.41 210.310   2
  -8   1  -2 1432.16 107.431   2
   8   1   2 1759.43 102.629   1
   8  -1   2 1629.56 105.291   2
  -8  -1  -2 1490.14 127.735   2
  -8  -1  -3 978.400 101.602   2
  -8  -1  -3 1170.25 84.8029   1
  -8   1  -3 995.484 92.4368   2
   8   1   3 948.379 82.6635   1
  -8   1  -3 1005.45 63.7180   1
   8  -1   3 1008.05 84.1538   2
  -8  -1  -4 182.672 47.4421   2
  -8   1  -4 182.298 32.1082   1
   8   1   4 197.338 42.3164   3
  -8  -1  -4 173.550 31.7664   1
  -8   1  -4 150.270 38.3207   2
   8   1   5 5548.72 211.140   3
  -8  -1  -5 5580.71 253.566   2
  -8   1  -5 5269.17 224.411   2
  -8  -1  -5 5573.02 200.470   1
   8   1   6 3912.96 187.846   3
  -8  -1  -6 4305.82 226.768   2
  -8  -1  -6 3727.69 179.041   1
  -8   1  -6 3945.22 202.269   2
  -8  -1  -7 170.839 43.7349   1
  -8   1  -7 132.659 38.5610   2
  -8  -1  -7 244.377 57.7354   2
   8   1   7 183.736 45.9210   3
  -8  -1  -8 2.26413 16.9508   2
  -8   1  -8 17.4476 28.7627   2
   8   1   8 11.3153 22.5550   3
  -8  -1  -8 17.2140 21.2074   1
  -8  -1  -9 526.536 85.0707   2
  -8   1  -9 486.874 80.3364   2
   8  -1   9 371.587 74.1693   3
   8  -1  10 1840.16 167.159   3
  -8  -1 -10 2167.43 176.563   2
  -8   1 -10 2072.35 166.902   2
  -8  -1 -11 554.587 93.6196   2
  -8   1 -11 503.316 84.8467   2
   8  -1  11 475.366 90.8071   3
  -8   1 -12 629.368 97.8616   2
  -8  -1 -12 580.630 95.9307   3
   8  -1  12 882.328 128.097   3
   8   1  12 594.540 97.8885   3
  -8  -1 -13 275.535 75.0049   3
   8  -1  13 297.742 77.7634   3
   8   1  13 318.624 72.0366   3
  -8  -1 -14 1156.66 147.625   3
   8   1  14 1135.77 142.024   3
   8  -1  14 928.556 136.109   3
  -8  -1 -15 1425.89 170.807   3
   8  -1  15 1254.34 166.054   3
   8   1  15 1401.18 166.330   3
   8  -1  16 513.849 110.692   3
   8   1  16 585.592 109.649   3
   8  -1  17 85.2471 54.3720   3
   8   1  17 49.4888 28.4331   3
   8  -1  18 76.5549 42.6987   3
   8   1  18 259.893 86.9097   3
   8   1  19 7.03143 44.5377   3
   8  -1  19 52.7550 64.9542   3
   8   1  20 204.215 78.5827   3
   8  -1  20 162.760 82.3147   3
   8   1  21 171.327 78.8970   3
   8  -1  21 241.590 90.1914   3
   8   1  22 244.162 98.9427   3
   8  -1  22 269.120 92.6266   3
   8  -1  23 188.020 95.9128   3
   8   1  23 53.9057 43.4270   3
   8  -1  24 109.566 74.8075   3
   8   1  24-13.3373 38.1638   3
   8   1  25-47.2982 81.2380   3
   8  -2 -26-63.2772 48.5579   2
   8  -2 -25 11.4805 30.0050   2
   8  -2 -24-138.344 62.8147   2
   8   2 -24-52.0381 61.1039   2
   8  -2 -23 104.292 52.2461   2
   8   2 -23 264.562 101.249   2
  -8  -2  22-11.0236 42.9960   3
   8  -2 -22-1.79313 34.2148   2
   8   2 -22-48.2958 47.8009   2
  -8  -2  21 690.728 168.759   3
   8  -2 -21 481.043 99.1576   2
   8   2 -21 635.405 136.599   2
  -8  -2  20 140.509 66.1821   3
   8  -2 -20 39.8031 27.8400   2
   8   2 -20 145.642 72.7661   2
  -8  -2  19 10.7401 64.9464   3
   8  -2 -19 116.139 54.0554   2
   8   2 -19 210.734 94.1672   2
  -8  -2  18 59.7216 48.9724   3
   8  -2 -18 48.1188 31.1361   2
   8   2 -18 81.7419 51.7360   2
  -8  -2  17 3544.58 321.362   3
   8  -2 -17 3083.67 240.332   2
   8   2 -17 3973.66 312.854   2
  -8  -2  16 233.383 59.9993   3
   8  -2 -16 147.056 50.6666   2
   8   2 -16 241.233 73.3896   2
  -8  -2  15 800.215 148.760   3
   8  -2 -15 800.781 113.587   2
   8   2 -15 949.404 148.324   2
  -8  -2  14 2176.25 230.077   3
   8  -2 -14 1938.82 178.292   2
   8   2 -14 1756.98 195.522   2
  -8  -2  13 715.675 127.786   3
   8  -2 -13 898.781 116.503   2
   8   2 -13 815.286 131.816   2
   8   2 -13 981.717 133.574   3
   8  -2 -12 47.3859 31.3131   3
  -8  -2  12 166.132 66.3158   3
   8  -2 -12 157.263 56.0611   2
   8   2 -12 142.169 67.5563   2
   8   2 -12 173.870 57.0963   3
   8  -2 -11 74.1026 31.2368   3
  -8  -2  11 61.3771 37.6240   3
   8  -2 -11 97.8133 40.5064   2
   8   2 -11 72.0764 46.6787   2
   8   2 -11 123.446 49.7442   3
   8  -2 -10 2735.94 178.100   2
   8   2 -10 2525.03 203.646   2
   8   2 -10 2946.40 207.620   3
   8  -2 -10 2845.67 239.548   3
   8  -2  -9 15.8705 19.1487   3
   8  -2  -9 28.7255 27.1728   2
   8   2  -9 20.2915 25.3061   3
  -8  -2   8 2441.08 186.752   2
   8  -2  -8 2315.08 151.188   2
   8   2  -8 2494.84 178.082   3
   8   2  -7 55.6386 34.5514   3
  -8  -2   7 106.584 47.3969   2
   8  -2  -7 49.3065 21.2130   2
  -8  -2   6 6652.72 297.103   2
   8  -2  -6 6443.53 220.637   2
   8   2  -6 6489.52 262.865   3
  -8   2   5 6716.00 215.515   2
  -8  -2   5 6905.88 297.879   2
   8  -2  -5 6684.17 211.994   2
   8   2  -5 6280.56 249.161   3
  -8   2   4 8314.57 230.519   2
  -8  -2   4 8656.69 326.777   2
   8  -2  -4 8335.64 225.529   2
   8   2  -4 7878.53 264.986   3
  -8   2   3 528.844 56.8824   2
  -8  -2   3 670.321 92.6848   2
   8   2  -3 543.505 66.2027   3
   8  -2  -3 479.698 52.9684   2
   8  -2  -2 6379.60 184.858   2
  -8   2   2 6369.77 192.640   2
  -8  -2   2 6246.14 265.663   2
   8  -2  -1 12966.9 259.988   2
  -8   2   1 12206.1 268.075   2
   8  -2  -1 12827.7 129.212   1
  -8  -2   1 12604.8 377.917   2
   8  -2   0 114.639 27.5373   2
  -8   2   0 72.8478 26.5835   2
   8   2   0 112.253 35.4531   1
  -8  -2   0 97.5445 41.7711   2
  -8  -2  -1 2007.57 151.427   2
   8  -2   1 2151.02 108.434   2
   8   2   1 2154.03 118.285   1
  -8   2  -1 1984.56 114.739   2
  -8  -2  -2 2.36546 24.7442   2
  -8   2  -2 40.3057 20.4514   2
  -8   2  -2 33.1498 9.73736   1
   8   2   2 39.4004 29.3369   1
   8   2   3 352.059 53.5878   1
  -8  -2  -3 330.376 64.1199   2
   8   2   3 254.181 40.3144   3
  -8   2  -3 290.923 31.2304   1
  -8   2  -3 301.527 49.4670   2
  -8  -2  -4 1347.32 130.093   2
  -8  -2  -4 1431.05 108.035   1
  -8   2  -4 1304.73 103.959   2
   8   2   4 1377.98 90.3119   3
  -8  -2  -5 8055.52 318.047   2
  -8   2  -5 8035.53 266.243   2
   8   2   5 8131.28 228.418   3
  -8  -2  -5 7898.40 254.662   1
  -8  -2  -6 1004.48 114.992   2
   8   2   6 1038.42 86.6994   3
  -8   2  -6 1102.93 102.312   2
  -8  -2  -6 971.678 93.7189   1
  -8  -2  -7 5715.66 281.436   2
  -8  -2  -7 5671.78 238.998   1
   8   2   7 5670.72 213.786   3
   8  -2   7 5327.25 276.290   3
  -8   2  -7 5938.61 249.243   2
   8   2   8 2203.09 141.798   3
  -8  -2  -8 2063.81 169.230   2
  -8  -2  -8 2091.29 149.223   1
   8  -2   8 1886.67 168.993   3
  -8   2  -8 2251.33 159.967   2
  -8   2  -9 183.125 47.2935   2
  -8  -2  -9 232.984 55.6781   1
   8  -2   9 240.742 65.9378   3
   8   2   9 284.603 56.4605   3
  -8  -2  -9 221.069 57.6443   2
  -8  -2 -10-13.4826 20.3780   2
  -8  -2 -10 10.1403 24.9560   1
   8  -2  10 27.7362 35.3444   3
  -8  -2 -11 1589.94 149.467   1
  -8  -2 -11 1678.87 165.532   2
  -8  -2 -11 1792.36 156.384   3
   8  -2  11 1787.18 178.542   3
  -8  -2 -12 839.608 114.216   3
   8   2  12 1086.83 124.548   3
   8  -2  12 849.229 127.780   3
  -8  -2 -13 125.987 48.3004   3
   8  -2  13 9.01929 27.3953   3
   8   2  13 106.581 47.9727   3
  -8  -2 -14 477.770 89.2205   3
   8  -2  14 490.635 103.903   3
   8   2  14 673.715 112.047   3
   8  -2  15 272.849 77.0635   3
  -8  -2 -15 204.996 61.2624   3
   8   2  15 210.818 69.9618   3
   8   2  16-55.4440 46.7633   3
   8  -2  16 182.208 77.0485   3
   8   2  17 25.3857 31.7396   3
   8  -2  17 65.7375 48.5278   3
   8   2  18-1.65504 27.7024   3
   8  -2  18-20.7381 55.4471   3
   8   2  19 19.2741 43.6697   3
   8  -2  19-2.23263 39.2094   3
   8   2  20-69.5777 58.2726   3
   8  -2  20 43.3552 69.9271   3
   8   2  21 140.846 63.7399   3
   8  -2  21 159.868 77.4714   3
   8   2  22 3.86429 35.2962   3
   8  -2  22 86.1829 77.9638   3
   8   2  23 30.4054 37.7104   3
   8  -2  23-48.0226 57.7848   3
   8   2  24 181.915 92.2546   3
   8   2  25 69.7504 73.9068   3
   8  -3 -26 17.5348 31.6983   2
   8  -3 -25 1.17717 26.1172   2
  -8  -3  24 255.594 116.599   3
   8  -3 -24 131.411 81.3319   2
   8   3 -24-50.5116 59.6275   2
  -8  -3  23-39.3734 76.4945   3
   8  -3 -23 41.9112 46.1158   2
   8   3 -23 34.5494 60.9352   2
  -8  -3  22 156.957 78.8353   3
   8  -3 -22 86.8367 43.2627   2
   8   3 -22 254.098 94.6233   2
  -8  -3  21 50.8113 66.8833   3
   8  -3 -21 4.26370 34.3813   2
   8   3 -21 64.8330 80.4717   2
  -8  -3  20 60.1623 60.3375   3
   8  -3 -20-0.97218 23.7531   2
   8   3 -20 6.70787 40.0106   2
  -8  -3  19 31.9134 49.7033   3
   8  -3 -19-12.0842 30.4776   2
   8   3 -19 8.33432 47.4172   2
  -8  -3  18 79.0154 70.4642   3
   8  -3 -18-7.79684 29.7368   2
   8   3 -18 6.61533 47.4328   2
  -8  -3  17-77.7338 62.1677   3
   8  -3 -17 23.5863 27.8448   2
   8   3 -17-30.4463 39.9843   2
  -8  -3  16 313.265 99.8451   3
   8  -3 -16 347.477 77.1821   2
   8   3 -16 272.595 86.7414   2
  -8  -3  15 90.6324 61.1637   3
   8  -3 -15 55.6874 39.1417   2
   8   3 -15 201.056 78.9772   2
  -8  -3  14 170.478 74.8027   3
   8  -3 -14 178.572 58.7133   2
   8   3 -14 89.1629 57.3875   2
  -8  -3  13 72.5850 48.9516   3
   8  -3 -13 124.788 52.9849   2
   8   3 -13 159.289 66.0822   2
   8   3 -13 55.2390 35.9013   3
  -8  -3  12-13.1933 40.3910   3
   8  -3 -12 59.8406 26.9916   2
   8   3 -12 97.1332 58.7319   2
   8   3 -12 49.1274 30.7161   3
   8  -3 -11 4217.38 307.162   3
  -8  -3  11 3846.50 271.213   3
   8  -3 -11 3682.83 203.405   2
   8   3 -11 3740.03 264.319   2
   8   3 -11 3958.69 247.468   3
  -8  -3  10-30.9397 35.6341   3
   8  -3 -10-34.0300 33.5720   3
   8  -3 -10 11.4962 20.5313   2
   8   3 -10-49.0760 40.3628   2
   8   3 -10 15.3327 15.4608   3
  -8  -3   9 9024.21 379.173   3
   8  -3  -9 9142.86 293.659   2
   8   3  -9 8999.83 385.252   2
   8   3  -9 9338.69 348.379   3
   8   3  -8 2316.73 163.830   3
  -8  -3   8 2380.20 188.160   3
  -8  -3   8 2331.07 193.114   2
   8  -3  -8 2404.44 141.739   2
  -8  -3   7 7357.25 337.828   2
   8  -3  -7 6802.05 222.797   2
   8   3  -7 7266.73 279.213   3
  -8  -3   6 337.889 74.4035   2
   8  -3  -6 295.978 42.1564   2
   8   3  -6 385.678 60.7015   3
   8   3  -5 4050.22 185.008   3
  -8  -3   5 3884.95 234.374   2
   8  -3  -5 4003.75 145.515   2
  -8  -3   4 426.651 79.2000   2
   8  -3  -4 478.069 46.4375   2
   8   3  -4 384.547 54.4777   3
   8  -3  -3 1028.71 63.5817   2
  -8   3   3 1015.67 68.9930   2
  -8  -3   3 1143.36 124.780   2
   8   3  -3 1049.53 83.5741   3
   8   3  -2-14.4857 17.2633   3
   8  -3  -2 8.55342 12.0145   2
  -8   3   2 27.6153 14.7028   2
  -8  -3   2 24.4479 29.4390   2
   8   3  -1 277.365 35.0560   3
   8  -3  -1 266.861 31.2436   2
  -8  -3   1 258.235 60.2900   2
  -8   3   1 259.730 34.4768   2
   8   3   0 6.36171 11.2492   3
  -8   3   0 12.1097 12.7052   2
   8   3   0-17.8397 30.6027   1
  -8  -3   0 28.9202 28.3138   2
  -8   3  -1 5901.78 181.590   2
  -8  -3  -1 6279.24 286.170   2
   8   3   1 6332.49 219.408   1
  -8  -3  -2 535.893 85.5983   2
  -8   3  -2 529.020 59.2345   2
   8   3   2 646.730 42.2428   3
   8   3   2 637.450 75.0201   1
  -8   3  -3 1053.29 85.7468   2
   8   3   3 1026.58 56.0921   3
   8   3   3 984.797 96.9962   1
  -8  -3  -3 1008.63 116.626   2
   8   3   4 189.237 48.1098   1
  -8   3  -4 173.467 36.6561   2
  -8  -3  -4 156.161 47.0499   2
   8   3   4 180.580 27.3653   3
  -8  -3  -5 94.6489 31.7526   1
  -8   3  -5 83.8158 29.9342   2
  -8  -3  -5 72.8128 37.2304   2
   8   3   5 151.417 27.5724   3
  -8  -3  -6 394.459 61.0578   1
  -8  -3  -6 374.152 74.6461   2
  -8   3  -6 352.385 58.4124   2
   8   3   6 318.922 44.7114   3
  -8   3  -7 32.5190 25.4493   2
  -8  -3  -7-24.1775 24.8616   1
   8   3   7 8.94179 20.9006   2
   8   3   7 8.89249 16.1215   3
   8  -3   8 430.188 86.9292   3
  -8  -3  -8 524.446 90.4396   2
   8   3   8 599.293 69.2940   3
  -8  -3  -8 592.732 82.6233   1
   8  -3   9 259.802 73.8916   3
  -8  -3  -9 252.747 67.7654   2
  -8  -3  -9 324.544 64.3393   1
   8   3   9 329.032 58.6456   3
  -8  -3 -10-2.36713 22.5161   3
   8  -3  10-1.23034 39.1372   3
  -8  -3 -10 6.89445 20.7810   1
  -8  -3 -10-1.45402 23.5753   2
   8   3  10 0.32682 21.7028   3
   8  -3  11-31.4542 39.3780   3
  -8  -3 -11-21.9549 27.4906   3
  -8  -3 -12-11.1530 17.3858   3
   8  -3  12 51.8386 53.0445   3
  -8  -3 -13 33.2580 24.1504   3
   8   3  13 21.9236 32.6847   3
   8  -3  13 75.1678 46.8562   3
   8   3  14 184.370 57.8205   3
  -8  -3 -14 160.106 54.6580   3
   8  -3  14 113.193 68.9388   3
  -8  -3 -15 2043.46 192.887   3
   8  -3  15 2385.25 236.986   3
   8   3  15 2446.28 213.387   3
   8   3  16 4.44341 35.3774   3
  -8  -3 -16 30.9934 38.9761   3
   8  -3  16 35.5493 44.6908   3
   8   3  17-16.7241 26.9363   3
   8  -3  17 2.32359 36.9667   3
   8   3  18 46.2819 36.8880   3
   8  -3  18 63.6131 66.8475   3
   8   3  19-68.1822 61.0582   3
   8  -3  19-38.5070 46.0354   3
   8   3  20 103.495 59.3250   3
   8  -3  20 87.0271 71.7518   3
   8   3  21 541.408 130.657   3
   8  -3  21 525.026 138.229   3
   8   3  22-14.2858 70.0300   3
   8  -3  22-31.3604 55.5393   3
   8   3  23 203.161 84.0705   3
   8   3  24-68.8941 60.1913   3
   8   3  25 7.51159 34.2811   3
   8  -4 -25-58.8388 41.6735   2
   8  -4 -24 107.309 54.4986   2
  -8  -4  23 6.77985 42.6536   3
   8  -4 -23 0.42030 46.1573   2
   8   4 -23-42.2663 52.5217   2
  -8  -4  22 99.3037 72.0985   3
   8  -4 -22 10.9167 20.9581   2
   8   4 -22 155.605 70.9007   2
  -8  -4  21-43.8744 64.9342   3
   8  -4 -21-44.9799 36.9801   2
   8   4 -21 33.6220 50.5298   2
  -8  -4  20 54.8161 75.0914   3
   8  -4 -20-10.2145 29.0036   2
   8   4 -20 41.7447 67.0676   2
  -8  -4  19 55.0591 48.6651   3
   8  -4 -19 15.9664 36.5811   2
   8   4 -19-7.13494 50.9168   2
  -8  -4  18 295.487 98.3699   3
   8  -4 -18 195.071 59.7575   2
   8   4 -18 240.613 90.7554   2
  -8  -4  17-37.4289 33.9818   3
   8  -4 -17 10.0889 30.8359   2
   8   4 -17-8.02658 43.0450   2
  -8  -4  16 243.562 81.2223   3
   8  -4 -16 124.054 48.2997   2
   8   4 -16 74.2324 57.3564   2
  -8  -4  15 46.0793 48.3724   3
   8  -4 -15 67.9206 35.1113   2
   8   4 -15 18.4141 41.2011   2
  -8  -4  14-16.1721 47.5422   3
   8  -4 -14 84.6898 43.5167   2
   8   4 -14-60.2614 45.7154   2
   8  -4 -13 8366.10 328.477   2
   8   4 -13 8344.40 431.571   2
   8   4 -13 8588.66 404.826   3
  -8  -4  13 8562.00 439.115   3
  -8  -4  12 565.416 107.532   3
   8  -4 -12 475.449 76.1215   2
   8   4 -12 388.997 95.2138   2
   8   4 -12 418.872 87.4045   3
   8  -4 -11 3040.39 178.306   2
   8   4 -11 2731.76 246.021   2
   8   4 -11 3037.36 222.676   3
  -8  -4  11 2879.79 231.967   3
   8  -4 -10-15.8150 25.5778   2
   8   4 -10 61.1160 42.8260   2
  -8  -4  10-8.79777 34.2073   3
   8   4 -10 11.5646 31.3162   3
  -8  -4   9 1501.43 154.613   3
   8  -4  -9 1677.68 117.109   2
   8   4  -9 1577.27 170.013   2
   8   4  -9 1644.74 147.800   3
  -8  -4   8 2314.41 181.775   3
  -8  -4   8 2531.95 212.535   2
   8  -4  -8 2470.69 129.002   2
   8   4  -8 2473.68 203.745   2
   8   4  -8 2206.11 163.050   3
  -8  -4   7 10302.4 363.216   3
  -8  -4   7 10279.2 418.549   2
   8  -4  -7 10160.7 235.568   2
   8   4  -7 9487.45 384.788   2
   8   4  -7 10088.6 325.872   3
  -8  -4   6 2333.42 164.155   3
  -8  -4   6 2319.30 197.581   2
   8   4  -6 2240.06 146.042   3
   8  -4  -6 2258.27 97.8974   2
   8  -4  -5 13.5400 7.90225   2
  -8  -4   5 44.2098 34.7548   2
   8   4  -5-6.77997 15.7700   3
   8  -4  -4 521.010 33.1928   2
   8   4  -4 554.602 60.8691   3
   8  -4  -4 587.696 38.8081   1
  -8  -4   4 590.907 102.886   2
  -8  -4   3-46.9102 42.4461   2
   8   4  -3 4.66361 10.1655   3
  -8   4   2 15.7574 8.06868   2
  -8  -4   2 79.6766 30.7747   2
   8   4  -2 20.0714 13.3955   3
  -8   4   1 1387.65 63.3471   2
  -8  -4   1 1361.36 139.329   2
   8   4  -1 1393.80 60.4173   3
  -8  -4   0 1754.77 158.286   2
  -8   4   0 1888.17 83.6814   2
   8   4   0 1996.73 133.246   1
   8   4   1 931.144 91.4590   1
  -8   4  -1 936.326 65.2113   2
  -8  -4  -1 946.708 116.771   2
  -8  -4  -2 437.076 81.3339   2
   8   4   2 321.855 58.1254   1
  -8   4  -2 384.815 46.0971   2
   8   4   2 376.710 71.0599   2
  -8  -4  -3 422.090 78.6207   2
   8   4   3 472.477 77.2356   2
  -8   4  -3 457.963 54.8752   2
   8   4   3 486.852 72.1051   1
   8   4   4 402.409 71.7819   1
  -8  -4  -4 480.266 84.8039   2
  -8   4  -4 373.541 52.1131   2
   8   4   4 450.331 77.9471   2
   8   4   5 142.349 24.1062   3
   8   4   5 187.760 53.4440   2
  -8  -4  -5 204.243 66.5658   2
  -8   4  -5 202.461 41.8425   2
  -8  -4  -6 4620.31 227.949   1
   8   4   6 3752.66 217.386   2
   8   4   6 4140.79 139.164   3
  -8  -4  -6 4124.86 256.527   2
  -8  -4  -7 2122.56 186.567   2
  -8  -4  -7 2216.97 157.649   1
   8  -4   7 2202.13 192.598   3
   8   4   7 2153.92 167.963   2
   8   4   7 2084.67 114.262   3
   8   4   8 261.687 45.4949   3
  -8  -4  -8 216.688 52.5949   1
   8  -4   8 185.873 63.0209   3
  -8  -4  -8 285.232 67.8744   2
   8   4   9 49.2401 27.5190   3
   8  -4   9 81.8849 50.3098   3
  -8  -4  -9 23.3166 14.1001   1
  -8  -4  -9 14.6959 27.3439   2
   8   4  10-11.3036 24.0738   3
  -8  -4 -10-15.0187 22.0296   3
   8  -4  10-5.32534 33.8564   3
  -8  -4 -11 891.544 98.9867   3
   8  -4  11 770.462 133.449   3
   8   4  11 804.766 101.803   3
  -8  -4 -12 69.9696 32.4134   3
   8  -4  12 69.4851 50.6403   3
  -8  -4 -13 804.046 109.252   3
   8  -4  13 714.427 135.855   3
   8   4  14 96.7647 50.2032   3
  -8  -4 -14 56.8261 35.7429   3
   8  -4  14 119.252 55.2986   3
   8   4  15 152.776 58.5551   3
  -8  -4 -15 101.656 46.0432   3
   8  -4  15 137.513 62.7581   3
   8   4  16 30.7077 28.8333   3
  -8  -4 -16 96.9929 42.6038   3
   8  -4  16 124.544 61.6917   3
   8  -4  17 1.08153 33.7288   3
   8   4  17-28.0800 40.3684   3
   8   4  18 9.24020 28.4984   3
   8  -4  18 114.418 47.4207   3
   8   4  19 793.173 146.872   3
   8  -4  19 870.898 165.106   3
   8   4  20-57.5215 74.5392   3
   8  -4  20 90.9044 56.0643   3
   8   4  21 194.864 81.4799   3
   8  -4  21 111.333 67.7462   3
   8   4  22-4.88190 36.1461   3
   8  -4  22-41.2901 45.0783   3
   8   4  23 70.0591 63.0090   3
   8   4  24-14.0782 42.6079   3
   8   4  25-129.960 78.5106   3
  -8  -5  23 84.2106 72.1982   3
   8  -5 -23 34.8087 31.1256   2
  -8  -5  22 49.6341 61.2859   3
   8  -5 -22-10.6153 34.6415   2
  -8  -5  21 271.464 88.8163   3
   8  -5 -21 293.842 82.0365   2
   8   5 -21 453.839 117.565   2
  -8  -5  20-94.4902 81.8098   3
   8  -5 -20-27.1560 34.6800   2
   8   5 -20-68.4450 48.8889   2
  -8  -5  19 169.994 83.3982   3
   8  -5 -19 142.421 49.4886   2
   8   5 -19 322.102 109.627   2
  -8  -5  18-6.89988 32.3271   3
   8  -5 -18 7.81024 22.2652   2
   8   5 -18 35.4551 48.5593   2
  -8  -5  17-5.27446 53.3962   3
   8  -5 -17 15.8559 33.4582   2
   8   5 -17-33.4596 51.0928   2
  -8  -5  16 204.119 79.8332   3
   8  -5 -16 106.744 37.7573   2
   8   5 -16 229.586 85.3600   2
  -8  -5  15 957.580 162.542   3
   8  -5 -15 714.845 101.583   2
   8   5 -15 641.379 132.312   2
  -8  -5  14 577.460 120.401   3
   8  -5 -14 645.857 90.1004   2
   8   5 -14 516.838 113.615   2
   8   5 -13 1764.06 187.536   3
   8  -5 -13 1925.12 152.506   2
   8   5 -13 1747.20 206.740   2
  -8  -5  13 1992.95 213.253   3
  -8  -5  12 634.599 116.826   3
   8  -5 -12 630.167 82.6244   2
   8   5 -12 638.232 106.444   3
   8   5 -12 624.135 120.560   2
  -8  -5  11 18.3511 35.9469   3
   8   5 -11-23.4926 31.8498   3
   8  -5 -11 5.65584 17.8626   2
   8   5 -11-60.0641 54.2889   2
  -8  -5  10 428.163 86.5811   3
   8  -5 -10 470.770 62.2842   2
   8   5 -10 538.501 112.227   2
   8   5 -10 419.306 80.3821   3
  -8  -5   9 72.6181 42.8808   3
   8  -5  -9-9.17483 16.2414   2
   8   5  -9 4.59185 22.6427   3
   8   5  -9-11.0448 33.0896   2
  -8  -5   8 355.272 72.6500   3
  -8  -5   8 377.625 88.4994   2
   8   5  -8 325.608 79.6830   2
   8  -5  -8 380.315 42.8638   2
   8   5  -8 433.131 75.3773   3
   8  -5  -7 76.7853 26.1380   1
  -8  -5   7 58.3968 32.9928   3
  -8  -5   7 89.7553 38.2995   2
   8   5  -7 80.7482 29.3931   3
   8   5  -7 13.9880 33.2471   2
   8  -5  -7 115.966 19.5919   2
  -8  -5   6 1946.21 146.952   3
  -8  -5   6 1541.03 169.709   2
   8  -5  -6 1846.38 94.0624   1
   8   5  -6 1843.26 174.274   2
   8   5  -6 1814.78 131.755   3
  -8  -5   5-10.5474 21.2257   3
   8  -5  -5 16.3204 7.96613   1
   8   5  -5-5.33433 16.4888   3
   8   5  -5 10.0418 23.3943   2
   8   5  -4 118.208 44.1281   2
  -8  -5   4 117.001 49.7447   2
   8   5  -4 122.602 29.1294   3
   8   5  -3-8.46314 25.3334   2
   8   5  -3 21.2954 15.3190   3
   8   5  -2 86.9093 41.0413   2
   8   5  -2 63.7986 15.9871   3
  -8  -5   2 120.982 50.4080   2
   8   5  -1-24.3881 32.6682   2
  -8  -5   1 9.89394 27.6276   2
   8   5   0 5820.44 245.335   1
  -8  -5   0 5645.33 296.815   2
   8   5   0 5399.56 276.781   2
  -8   5  -1 1872.92 80.6839   2
   8   5   1 1946.93 166.995   2
  -8  -5  -1 1831.17 170.457   2
   8   5   1 1968.14 144.253   1
   8   5   2 384.170 66.1908   1
  -8   5  -2 355.163 40.9208   2
   8   5   2 319.853 68.8027   2
  -8  -5  -2 411.260 83.1317   2
  -8  -5  -3 146.351 55.8974   2
   8   5   3 72.4989 33.3998   1
  -8   5  -3 88.0131 24.0605   2
   8   5   3 80.4732 37.2190   2
  -8  -5  -4 319.842 73.4382   2
   8   5   4 219.714 57.8423   1
  -8   5  -4 290.060 46.1790   2
   8   5   4 260.829 60.8221   2
   8   5   5 3241.05 208.872   2
   8   5   5 3497.15 215.325   1
  -8  -5  -5 3751.54 256.063   2
  -8   5  -5 3575.23 165.392   2
   8  -5   6 1.04011 32.3939   3
   8   5   6 9.47636 20.4475   2
  -8  -5  -6 34.5603 24.9100   2
  -8  -5  -7 570.117 101.519   2
   8   5   7 649.173 96.7871   2
   8  -5   7 478.591 97.3086   3
   8  -5   8-30.3214 38.0411   3
   8   5   8 3.47720 20.3944   2
  -8  -5  -8-54.4367 40.1118   2
   8  -5   9 1720.67 187.545   3
  -8  -5 -10 27.1097 20.2378   3
   8  -5  10 119.711 60.1647   3
   8  -5  11 623.274 123.057   3
  -8  -5 -11 530.368 72.2750   3
  -8  -5 -12 809.129 95.9814   3
   8  -5  12 693.916 131.121   3
   8  -5  13 226.858 79.0739   3
  -8  -5 -13 178.995 50.0290   3
  -8  -5 -14 31.1839 27.6252   3
   8  -5  14 62.3998 45.2982   3
   8   5  15 225.681 64.1340   3
  -8  -5 -15 233.899 64.1719   3
   8  -5  15 394.384 103.177   3
   8   5  16-38.9899 39.2791   3
   8  -5  16-56.7786 69.0433   3
   8   5  17 142.961 61.8164   3
   8  -5  17 42.2444 41.4512   3
   8  -5  18 1923.53 241.797   3
   8  -5  19 82.5200 73.6207   3
   8  -5  20 74.1417 64.9521   3
   8  -5  21 280.841 109.723   3
  -8  -6  22 125.711 86.4536   3
   8   6 -21 18.2745 38.2123   2
  -8  -6  21-125.662 79.8490   3
  -8  -6  20 178.254 73.8707   3
   8   6 -20 274.165 111.974   2
  -8  -6  19 87.7317 72.8277   3
   8  -6 -19-17.9197 27.6110   2
   8   6 -19 18.7885 40.0214   2
   8  -6 -18-37.0499 32.0331   2
   8   6 -18 67.1697 38.5105   2
  -8  -6  17 37.8045 57.6904   3
   8  -6 -17-4.45972 28.5666   2
   8   6 -17 42.9624 37.0463   2
  -8  -6  16-4.18742 31.6743   3
   8  -6 -16-19.9009 28.0792   2
  -8  -6  15 572.209 127.077   3
   8  -6 -15 569.770 88.5782   2
   8   6 -15 522.945 123.124   2
  -8  -6  14 1142.05 167.137   3
   8  -6 -14 1493.21 133.080   2
   8   6 -14 1247.59 185.791   2
  -8  -6  13 38.5018 33.6833   3
   8  -6 -13 65.3770 27.7549   2
   8   6 -13-34.8276 49.5651   2
  -8  -6  12 311.602 91.7420   3
   8   6 -12 208.844 62.9418   3
   8  -6 -12 328.912 56.2762   2
   8   6 -12 236.903 81.6223   2
  -8  -6  11-14.3734 27.9318   3
   8  -6 -11 1.93043 12.7951   2
   8  -6 -11 4.99079 13.9670   2
   8   6 -11 8.59219 45.5035   2
   8   6 -11 26.3090 29.0460   3
   8  -6 -11-0.96054 15.5070   1
  -8  -6  10-29.1104 27.0297   3
   8  -6 -10 13.2791 8.14853   2
   8   6 -10 25.1374 20.2302   3
   8   6 -10 53.0443 48.0350   2
   8  -6 -10 16.1549 14.8749   2
   8  -6  -9 1880.12 76.6301   2
   8   6  -9 1806.15 193.559   2
   8   6  -9 1620.75 155.861   3
   8  -6  -9 1595.84 116.069   1
  -8  -6   9 1760.32 169.312   3
  -8  -6   8 587.196 94.9239   3
   8   6  -8 586.376 86.9690   3
   8  -6  -8 548.036 63.2874   1
   8   6  -8 509.539 106.076   2
  -8  -6   7 306.386 63.8168   3
   8  -6  -7 263.452 41.5031   1
   8   6  -7 226.456 49.8125   3
   8   6  -7 372.647 87.5011   2
  -8  -6   6 260.434 56.7897   3
  -8  -6   6 283.426 79.7214   2
   8   6  -6 126.754 34.3561   3
   8  -6  -6 195.462 32.7741   1
   8   6  -6 166.158 57.7610   2
  -8  -6   5 77.8164 26.2639   3
  -8  -6   5 207.925 68.2105   2
   8   6  -5 57.4885 21.1931   3
   8   6  -5 150.657 57.4192   2
  -8  -6   4 817.668 80.2164   3
   8   6  -4 745.529 115.795   2
  -8  -6   4 855.505 127.921   2
   8   6  -3 303.809 71.7055   2
  -8  -6   3 416.023 93.2816   2
   8   6  -2 4.08270 20.1457   2
  -8  -6   2 64.9366 39.5482   2
   8   6  -1 2393.62 173.442   1
  -8  -6   1 2379.86 207.445   2
   8   6  -1 2097.97 182.736   2
   8   6   0 5384.91 290.982   2
   8   6   0 5807.98 260.980   1
  -8  -6   0 5776.06 320.931   2
   8   6   1 68.5280 42.5933   2
   8   6   1 69.8107 36.1296   1
  -8  -6  -1 19.2333 24.4940   2
  -8   6  -1 73.9517 13.6423   2
   8   6   2 53.1148 31.6779   1
  -8   6  -2 47.8483 17.4401   2
  -8   6  -2 59.8887 15.6421   2
  -8   6  -2 40.5326 9.48610   1
  -8  -6  -2 2.26150 23.4398   2
   8   6   2 82.5598 39.0733   2
   8   6   3 2560.58 187.823   1
   8   6   3 2555.50 197.383   2
  -8   6  -3 2717.94 89.8948   1
  -8   6  -3 2775.99 118.910   2
  -8  -6  -3 3071.24 235.454   2
   8   6   4 9946.36 382.454   2
   8   6   4 9237.08 366.681   1
  -8  -6  -4 10114.3 433.658   2
  -8   6  -4 10102.4 252.426   2
   8   6   5 1978.74 170.300   2
  -8  -6  -5 2126.72 201.360   2
   8   6   5 1804.98 165.839   1
  -8  -6  -6 46.1763 36.1527   2
   8   6   6-6.16461 34.3107   2
   8  -6   6 63.9139 48.1163   3
   8   6   7-25.1676 21.2073   2
   8  -6   7 38.3873 40.0947   3
   8  -6   8 1515.29 183.186   3
   8   6   8 1674.13 160.956   2
   8  -6   9 547.900 112.915   3
   8  -6  10 2380.47 235.855   3
  -8  -6 -11 40.0729 23.6577   3
   8  -6  11 69.2483 48.6889   3
  -8  -6 -12 28.7599 23.9948   3
   8  -6  12 9.50723 35.3558   3
   8  -6  13 31.1399 40.6867   3
   8  -6  14 673.807 132.231   3
   8  -6  15 71.3032 51.2850   3
   8  -6  16-38.0689 62.1990   3
   8  -6  17-52.8439 55.5644   3
   8  -6  18-91.7904 57.6537   3
   8  -6  19 75.2308 64.5661   3
  -8  -7  22 123.321 79.1068   3
  -8  -7  21 12.0476 50.7968   3
  -8  -7  20 38.1327 75.3717   3
   8   7 -20-38.1357 49.1815   2
  -8  -7  19 111.440 76.2655   3
   8   7 -19 98.0684 79.1139   2
  -8  -7  18 110.757 74.9732   3
   8   7 -18-123.260 79.2625   2
  -8  -7  17 35.1744 41.9688   3
   8   7 -17 69.8666 53.6266   2
   8   7 -16 77.6735 71.5258   2
  -8  -7  16 22.9260 35.1418   3
  -8  -7  15 35.4229 31.9244   3
   8   7 -15 109.191 75.2526   2
  -8  -7  14 671.999 131.038   3
   8   7 -14 752.661 143.614   2
  -8  -7  13 62.5747 41.3431   3
   8  -7 -13 6.57949 15.7570   1
   8  -7 -13 58.7354 25.4264   2
   8   7 -13 17.3882 42.7086   2
  -8  -7  12 326.144 84.9598   3
   8  -7 -12 347.490 49.0819   2
   8  -7 -12 259.521 55.9629   1
   8   7 -12 442.965 94.9737   3
   8   7 -12 525.393 121.100   2
   8  -7 -11 786.498 90.8743   1
   8  -7 -11 740.172 56.3725   2
   8   7 -11 889.758 128.713   3
   8   7 -11 799.821 144.416   2
  -8  -7  11 997.959 139.530   3
  -8  -7  10-20.2953 37.3232   3
   8  -7 -10 30.9037 20.5491   1
   8   7 -10 27.4175 27.3934   3
   8   7 -10-21.5234 42.6074   2
   8   7  -9 2105.58 177.839   3
   8   7  -9 2473.69 235.377   2
  -8  -7   9 2311.65 194.477   3
  -8  -7   8 5.97342 21.8517   3
   8   7  -8 38.1496 25.5242   3
   8  -7  -8 35.0529 18.8007   1
   8   7  -8-35.6825 50.2472   2
   8   7  -7 725.951 125.101   2
  -8  -7   7 870.855 105.794   3
  -8  -7   6 185.440 48.1500   3
   8   7  -6 202.191 67.2715   2
   8   7  -5 615.419 110.471   2
  -8  -7   5 587.608 77.5237   3
   8   7  -4 1391.47 162.843   2
  -8  -7   4 1499.39 110.485   3
   8   7  -3-38.1182 33.9838   2
  -8  -7   2 4027.28 291.065   2
   8   7  -2 3822.20 261.094   2
   8   7  -1-32.3535 37.6432   1
   8   7  -1 63.8480 40.8060   2
  -8  -7   1-49.9645 50.5440   2
   8   7   0 1313.76 132.942   1
   8   7   0 1292.43 147.180   2
  -8  -7   0 1290.55 162.005   2
   8   7   1 115.099 51.4106   1
  -8  -7  -1 109.501 50.3431   2
   8   7   1 2.08665 31.6503   2
   8   7   2 8152.16 344.323   1
  -8   7  -2 7857.67 142.461   2
   8   7   2 8054.47 360.252   2
  -8   7  -2 7491.62 152.137   2
  -8  -7  -2 8277.03 403.841   2
  -8   7  -2 7707.51 176.911   1
  -8   7  -3-3.45962 9.02354   2
  -8   7  -3-1.43178 8.56204   1
  -8   7  -3 6.39253 15.7637   2
   8   7   3 3.84613 33.5554   1
  -8  -7  -3-2.53055 21.6764   2
   8   7   3 31.5710 37.2398   2
   8   7   4 232.463 64.5680   1
  -8   7  -4 184.617 33.6007   2
  -8   7  -4 197.500 41.8066   2
   8   7   4 220.555 63.2020   2
   8   7   5 36.7107 27.8529   2
  -8   7  -5-17.9992 18.1951   2
   8   7   5 36.2988 34.5436   1
   8   7   6-56.5377 39.0521   2
   8  -7   6-0.42308 34.1804   3
   8   7   7 54.4027 28.1369   2
   8  -7   7 21.6804 38.9687   3
   8  -7   8 2124.44 221.188   3
   8   7   8 2053.39 183.584   2
   8  -7   9 118.898 70.5519   3
   8  -7  10 50.6556 46.7149   3
   8  -7  11 20.6545 33.1993   3
   8  -7  12 50.6371 51.4072   3
   8  -7  13 647.915 135.413   3
   8  -7  14-29.6697 44.6216   3
   8  -7  15-39.8552 48.6034   3
   8  -7  16-33.9301 59.1470   3
   8  -7  17 51.4555 56.9471   3
   8  -7  18 28.8932 40.1538   3
  -8  -8  21 78.6109 64.7918   3
  -8  -8  20-97.1915 70.8185   3
  -8  -8  19-41.9262 51.2983   3
  -8  -8  18 3.75088 29.1311   3
   8   8 -18 1.04341 46.0297   2
  -8  -8  17 2.22340 41.7668   3
   8   8 -17-54.2319 49.2244   2
  -8  -8  16-29.3161 45.5387   3
   8   8 -16-97.7974 64.0829   2
  -8  -8  15 134.372 77.8748   3
   8   8 -15 125.553 62.1717   2
  -8  -8  14-76.2044 50.3174   3
   8   8 -14 17.7838 36.5204   2
  -8  -8  13-13.4364 27.7043   3
   8   8 -13-27.8151 43.5937   2
  -8  -8  12 935.094 142.171   3
   8   8 -12 991.092 160.025   2
  -8  -8  11 39.7656 33.1294   3
   8  -8 -11 1.86964 13.7950   1
   8   8 -11 4.39823 41.0316   2
  -8  -8  10 435.305 92.0975   3
   8  -8 -10 384.353 62.8335   1
   8   8 -10 490.617 115.406   2
  -8  -8   9-31.0210 35.5292   3
   8   8  -9 37.3121 56.6317   2
  -8  -8   8 30.4739 32.7050   3
   8   8  -8-51.6238 53.8433   2
   8   8  -7-74.9398 54.6767   2
  -8  -8   7 14.4819 21.9054   3
   8   8  -6 198.938 69.0079   2
  -8  -8   6 235.213 54.3511   3
   8   8  -5-6.99717 26.4880   2
  -8  -8   5 60.8329 26.1034   3
  -8  -8   4 402.633 57.2196   3
   8   8  -4 502.021 101.177   2
  -8  -8   3 128.549 26.3879   3
   8   8  -3 65.8894 40.0883   2
   8   8  -2 270.131 72.7491   2
   8   8  -2 185.168 53.3550   1
   8   8  -1 220.074 62.3824   1
   8   8  -1 135.967 56.1882   2
   8   8   0 1168.15 146.628   2
   8   8   0 1189.31 137.077   1
   8   8   1-26.0830 39.0684   1
   8   8   1 31.1658 39.1249   2
   8   8   2 122.918 55.3376   2
   8   8   2 31.1346 37.7698   1
  -8   8  -2 40.8433 14.3646   1
   8   8   3 3483.90 246.645   2
  -8   8  -3 3302.20 104.497   2
   8   8   3 3465.38 248.184   1
  -8   8  -3 3676.24 141.199   1
   8   8   4 669.611 108.045   2
  -8   8  -4 627.357 57.3619   2
   8   8   4 590.170 107.675   1
  -8   8  -4 621.041 67.0936   2
  -8   8  -4 646.823 61.0254   1
   8   8   5 17.7083 30.0554   2
   8   8   5 73.5139 47.4902   1
  -8   8  -5-58.5488 33.1315   2
   8  -8   5 68.7775 54.0127   3
   8   8   6 72.8167 45.2181   2
   8  -8   6-37.8955 45.4347   3
  -8   8  -6 67.1021 33.1012   2
   8   8   7 275.739 71.1049   2
   8  -8   7 475.941 115.026   3
   8  -8   8 36.9104 37.9905   3
   8   8   8-2.40305 21.2088   2
  -8   8  -9 50.9759 25.5122   2
   8  -8   9-26.8940 48.6439   3
  -8   8 -10 111.593 44.6562   2
   8  -8  10 67.2074 41.8979   3
   8  -8  11 222.371 82.7632   3
  -8   8 -11 193.214 59.7466   2
  -8   8 -12 99.1702 46.8449   2
   8  -8  12 214.186 86.5170   3
   8  -8  13 163.207 71.9186   3
   8  -8  14 451.128 128.683   3
   8  -8  15 164.088 75.2532   3
   8  -8  16 119.176 61.8710   3
   8  -8  17 49.4774 54.3393   3
  -8  -9  19-63.1221 57.9853   3
  -8  -9  18 14.7770 38.3061   3
  -8  -9  17 56.7578 62.4083   3
   8   9 -17-8.39097 39.6877   2
  -8  -9  16-78.6171 56.4128   3
   8   9 -16 46.7317 50.8822   2
  -8  -9  15 79.3459 52.4727   3
   8   9 -15 56.0436 48.9797   2
  -8  -9  14-45.6714 48.0144   3
   8   9 -14-12.4410 36.8322   2
  -8  -9  13 146.568 70.5836   3
   8   9 -13 211.854 85.0214   2
  -8  -9  12-41.6368 35.1062   3
   8   9 -12 81.0922 44.3301   2
  -8  -9  11 56.7138 42.3348   3
   8   9 -11 21.4380 39.1481   2
  -8  -9  10 66.5447 36.0420   3
   8   9 -10-11.8407 46.6600   2
  -8  -9   9 60.0292 37.3364   3
   8   9  -9 42.0474 35.7326   2
   8   9  -8 416.316 98.7426   2
  -8  -9   8 545.676 90.5479   3
   8   9  -7-35.6192 34.5143   2
  -8  -9   7 22.7780 22.7256   3
  -8  -9   6 100.161 38.5802   3
   8   9  -6-16.1582 28.4928   2
  -8  -9   5 64.0401 29.1924   3
   8   9  -5 99.9117 58.2275   2
  -8  -9   4 181.006 38.9102   3
   8   9  -4 204.252 71.2393   2
   8   9  -3 520.910 107.882   2
   8   9  -3 631.201 107.770   1
   8   9  -2 66.3670 40.6062   2
   8   9  -2 70.4559 48.7670   1
   8   9  -1 490.351 100.633   2
   8   9  -1 661.134 110.152   1
   8   9   0 255.766 72.3923   1
   8   9   0 230.358 68.1377   2
   8   9   1 114.858 47.4436   2
   8   9   1 173.665 69.8539   1
   8   9   2 24.0964 24.3257   2
   8   9   2 40.2605 48.8335   1
  -8   9  -3 99.6864 28.7334   1
   8   9   3 65.7028 44.2748   1
   8   9   3 76.8836 40.5272   2
   8   9   4-33.7701 42.6202   1
   8   9   4-22.2394 30.7994   2
   8  -9   4-6.64535 38.4973   3
  -8   9  -4 8.74873 10.8598   1
   8   9   5 29.3848 36.6842   2
   8  -9   5 150.407 64.9116   3
  -8   9  -5 44.1335 18.4433   2
  -8   9  -5 42.3964 11.5738   1
   8   9   6-10.9197 27.7574   2
  -8   9  -6 5.31925 15.0612   2
   8  -9   6-50.9387 48.8812   3
  -8   9  -6-21.9204 16.7556   1
   8  -9   7 147.902 67.7474   3
   8   9   7 97.3574 53.2744   2
  -8   9  -8 48.2831 28.6382   2
   8  -9   8-66.6750 63.8481   3
  -8   9  -9 123.649 39.6832   2
   8  -9   9 153.334 65.1168   3
  -8   9 -10-22.1629 29.1735   2
   8  -9  10 28.8152 53.3019   3
  -8   9 -11 189.978 59.5358   2
   8  -9  11 364.811 106.456   3
  -8   9 -12 57.9054 36.8266   2
   8  -9  12 5.85852 52.7116   3
  -8   9 -13 46.9723 47.2343   2
   8  -9  13 148.452 78.3637   3
  -8   9 -14 197.540 69.8820   2
   8  -9  14 342.015 116.383   3
  -8   9 -15 44.0043 32.0645   2
   8  -9  15-71.9926 77.3423   3
  -8   9 -16 11.3073 29.7765   2
  -8   9 -17-160.921 68.9758   2
  -8   9 -18 0.54360 40.7966   2
   8  10 -15 4.08825 34.2303   2
   8  10 -14 0.33106 37.4063   2
   8  10 -13 12.4435 35.0914   2
   8  10 -12 218.279 80.6388   2
   8  10 -11 71.8798 53.4404   2
   8  10 -10-86.5309 56.5175   2
   8  10  -9-22.2488 35.2218   2
   8  10  -8 66.5857 52.8648   2
   8  10  -7 743.513 140.346   2
   8  10  -6 18.2377 29.7279   2
   8  10  -5 21.7031 26.7719   2
   8  10  -5 203.966 67.9152   1
   8  10  -4 19.8332 22.9877   2
   8  10  -4-24.3781 38.1345   1
   8  10  -3 107.928 47.9756   2
   8  10  -3 136.353 51.7896   1
   8  10  -2 83.9024 49.7167   2
   8  10  -2 37.3645 30.5136   1
   8  10  -1 734.836 123.726   1
   8  10  -1 686.752 120.326   2
   8  10   0 184.855 64.9150   1
   8  10   0 107.772 49.3443   2
   8  10   1 44.5812 43.4784   1
   8  10   1 39.0905 34.1843   2
   8  10   2 221.423 73.9057   1
   8  10   2 142.142 59.2117   2
   8  10   3-31.4382 23.5993   2
   8  10   3 68.1844 49.7013   1
   8 -10   3 82.2587 59.9995   3
   8  10   4 529.289 101.505   2
   8 -10   4 633.460 132.789   3
   8  10   4 652.828 124.992   1
   8  10   5 75.9716 48.8991   2
   8 -10   5 36.2839 35.8538   3
   8 -10   6 1111.40 185.825   3
   8  10   6 1100.65 149.347   2
   8  10   7-5.45098 32.7441   2
   8 -10   7-46.2463 46.8320   3
   8 -10   8 399.734 112.705   3
   8 -10   9-65.1115 62.8089   3
   8 -10  10 85.7659 57.1749   3
   8 -10  11 217.604 90.3296   3
   8 -10  12 35.8838 49.0739   3
   8 -10  13 11.2554 68.6846   3
   8  11 -13-2.03763 30.4360   2
   8  11 -12 152.551 81.1112   2
   8  11 -11 90.9271 63.5538   2
   8  11 -10 13.1820 41.6306   2
   8  11  -9 43.3262 59.6502   2
   8  11  -8 149.696 66.4407   2
   8  11  -7 105.373 51.6172   2
   8  11  -6-23.8351 33.4617   2
   8  11  -6-11.4436 36.6424   1
   8  11  -5 46.4949 45.5004   2
   8  11  -5 97.9027 58.2656   1
   8  11  -4 171.774 57.1581   1
   8  11  -4 108.825 55.2327   2
   8  11  -3 185.370 68.2902   2
   8  11  -3 147.816 67.7327   1
   8  11  -2 98.4116 56.5054   1
   8  11  -2-30.4383 40.3090   2
   8  11  -1 2.23437 29.1797   1
   8  11  -1 78.8008 53.9282   2
   8  11   0 113.620 57.1789   1
   8  11   0 2.96894 24.5068   2
   8  11   1 33.8261 31.1491   1
   8  11   1 13.5322 34.9365   2
   8  11   2 331.948 86.0652   2
   8  11   2 300.119 79.8323   1
   8 -11   2 350.220 102.891   3
   8  11   3 450.086 107.172   1
   8  11   3 203.701 68.8475   2
   8 -11   3 199.852 73.5709   3
   8 -11   4 336.225 106.353   3
   8  11   4 224.436 69.3370   2
   8  11   5 335.864 87.1602   2
   8 -11   5 195.712 81.7053   3
   8  11   6-13.0692 32.4790   2
   8 -11   6-43.7095 49.0915   3
   8 -11   7 18.6928 47.0113   3
   8 -11   8 110.829 67.9874   3
   8 -11   9-84.8113 61.2289   3
   8 -11  10 241.842 98.8103   3
   8  12 -11 40.1099 61.4020   2
   8  12 -10 123.971 63.1984   2
   8  12  -9-52.0503 45.5858   2
   8  12  -8-20.4051 39.2292   2
   8  12  -7 1.17806 37.7482   2
   8  12  -6-13.0700 39.5866   2
   8  12  -5 34.0225 36.5210   2
   8  12  -4 195.045 81.9354   2
   8  12  -4 341.429 90.7863   1
   8  12  -3 133.726 61.3386   1
   8  12  -3 113.472 58.0253   2
   8  12  -2-105.148 54.8320   2
   8  12  -2-29.4137 31.9176   1
   8  12  -1 56.6399 43.4249   1
   8  12  -1 99.1506 64.6755   2
   8  12   0 180.031 75.6166   1
   8  12   0 28.5733 26.0308   2
   8  12   1 43.9992 44.0012   2
   8 -12   1 106.840 67.0952   3
   8  12   1-13.4757 41.6094   1
   8  12   2-35.0605 42.6218   1
   8  12   2-10.3248 31.9205   2
   8 -12   2-79.6641 56.3291   3
   8  12   3 26.7989 23.7071   2
   8 -12   3 18.6210 51.8967   3
   8 -12   4-48.6523 46.2770   3
   8  12   4-61.6932 40.6337   2
   8 -12   5 274.191 103.100   3
   8 -12   6-23.3228 56.6514   3
   8 -12   7-4.74254 30.9444   3
   9   0 -25 72.2888 60.0245   2
   9   0 -24-132.354 69.4239   2
   9   0 -23 78.4736 58.0162   2
   9   0 -22 11.6154 40.4106   2
   9   0 -21 67.9285 54.4024   2
   9   0 -20 38.1272 53.2113   2
   9   0 -19-20.1990 43.5177   2
   9   0 -18-49.9092 49.3628   2
   9   0 -17 45.4001 42.6858   2
   9   0 -16-42.1652 47.4178   2
   9   0 -15 2001.80 200.352   2
   9   0 -14-2.85554 41.7796   2
   9   0 -13 1525.57 161.978   2
   9   0 -13 1819.17 194.884   3
   9   0 -12 11.8284 26.7158   3
   9   0 -12 36.5610 46.5144   2
   9   0 -11 267.502 74.7755   3
   9   0 -11 216.002 66.3289   2
   9   0 -10-13.1293 38.5832   3
   9   0 -10-20.1514 33.2864   2
   9   0  -9 9936.66 363.222   2
   9   0  -9 10876.9 437.735   3
   9   0  -8 11.7884 32.4936   3
   9   0  -8-42.7463 32.6878   2
   9   0  -7 65.0902 42.9760   3
  -9   0   7-1.38526 31.2065   2
   9   0  -7 16.1832 26.8407   2
  -9   0   6-5.49410 18.1144   2
   9   0  -6 29.9413 23.5642   2
  -9   0   5 35676.1 625.504   2
   9   0  -5 35520.1 603.094   2
  -9   0   4-0.80157 20.4069   2
   9   0  -4 47.0318 29.5160   2
  -9   0   3 4305.88 206.384   2
   9   0  -3 4172.33 199.745   2
   9   0  -2-16.5929 23.5887   2
  -9   0   2 6.73967 13.4025   2
   9   0  -1 73.0132 32.3510   2
  -9   0   1 79.2725 31.0631   2
  -9   0   0 9.46900 16.6852   2
   9   0   0 18.7440 24.8163   2
   9   0   0 15.1455 15.6204   1
   9   0   1 4797.81 203.995   2
   9   0   1 4591.89 151.979   1
  -9   0  -1 4674.24 215.141   2
   9   0   2-5.09626 15.5079   2
  -9   0  -2 7.03807 18.5575   2
   9   0   2-0.05534 16.0673   1
  -9   0  -3 675.047 88.3281   2
  -9   0  -3 716.596 62.3556   1
   9   0   4-33.3237 31.1168   2
  -9   0  -4 7.02518 22.5524   2
  -9   0  -4 8.10722 13.5943   1
  -9   0  -5 1131.67 115.065   2
   9   0   5 1263.92 115.443   3
  -9   0  -5 1213.07 93.6858   1
  -9   0  -6-4.25409 17.7194   1
  -9   0  -6-31.0368 29.7316   2
  -9   0  -7-15.4932 24.3529   2
  -9   0  -7 4.28760 16.7136   1
  -9   0  -8 0.12941 16.9209   2
  -9   0  -8-6.51069 23.0710   1
  -9   0  -9 1889.73 165.026   2
  -9   0 -10-23.7763 21.4178   2
   9   0  10 1.27055 27.4425   3
  -9   0 -11 43.4493 24.0524   2
   9   0  11-41.8612 44.5628   3
   9   0  12 13.9821 37.9074   3
   9   0  13 186.177 67.5478   3
   9   0  14-12.9229 32.0890   3
   9   0  15 425.454 94.1990   3
   9   0  16-20.0658 31.6349   3
   9   0  17 65.9891 46.0457   3
   9   0  18 22.2323 34.1786   3
   9   0  19 1904.84 226.761   3
   9   0  20 25.8322 47.5314   3
   9   0  21 4175.51 362.750   3
   9   0  22-82.1959 58.9587   3
   9   0  23 91.7934 55.2036   3
   9   0  24-57.3401 48.7578   3
   9  -1 -25 139.967 76.9124   2
   9   1 -25 148.029 76.5986   2
   9  -1 -24 31.8720 41.0695   2
   9   1 -24-81.1312 58.7507   2
   9  -1 -23 4.61640 38.4212   2
   9   1 -23 27.9804 36.7970   2
   9  -1 -22 1.72984 31.9116   2
   9   1 -22-19.2328 54.3386   2
   9  -1 -21 31.1256 49.0056   2
   9   1 -21 26.5690 51.1879   2
   9  -1 -20-7.74915 40.1756   2
   9   1 -20 14.2677 47.5620   2
   9  -1 -19 28.1328 37.3613   2
   9   1 -19-43.6097 50.4323   2
   9  -1 -18 84.0792 55.8811   2
   9   1 -18-21.9728 46.4520   2
   9  -1 -17-42.2835 46.2632   2
   9   1 -17 32.4191 44.4263   2
   9  -1 -16 239.130 74.5044   2
   9   1 -16 260.530 83.9430   2
   9  -1 -15-46.9565 48.2875   2
   9   1 -15 13.3853 32.2522   2
   9  -1 -14-2.82483 31.9885   2
   9   1 -14 40.0410 35.8112   2
   9  -1 -13-2.03537 43.4328   2
   9   1 -13 66.5773 52.2405   2
   9   1 -13-29.7808 24.9588   3
   9  -1 -12 1989.29 175.128   2
   9   1 -12 2213.32 197.205   2
   9  -1 -12 2493.57 233.580   3
   9   1 -12 1985.18 194.590   3
   9  -1 -11 697.856 123.566   3
   9  -1 -11 675.718 99.5112   2
   9   1 -11 878.021 122.802   3
   9   1 -11 845.837 118.452   2
   9   1 -10 209.591 63.7747   3
   9  -1 -10 155.712 57.7758   3
   9  -1 -10 179.503 52.9693   2
   9   1 -10 158.103 59.7377   2
   9  -1  -9 2477.83 219.139   3
   9   1  -9 2455.46 194.939   3
   9  -1  -9 2524.29 176.457   2
   9   1  -9 2250.47 178.746   2
   9   1  -8 310.319 69.4351   3
   9   1  -8 225.053 57.0676   2
   9  -1  -8 303.034 74.9609   3
  -9  -1   8 271.526 61.7758   2
   9  -1  -8 277.247 58.6457   2
  -9  -1   7 1986.26 164.243   2
   9  -1  -7 1882.07 137.453   2
   9   1  -7 1835.64 154.583   2
   9   1  -7 2041.83 172.726   3
   9   1  -6 11339.9 393.133   3
  -9   1   6 10762.4 327.041   2
  -9  -1   6 10566.3 366.589   2
   9   1  -6 10740.2 354.239   2
   9  -1  -6 10455.2 315.011   2
   9   1  -5 2241.69 170.787   3
  -9   1   5 2413.08 150.037   2
  -9  -1   5 2316.35 170.859   2
   9   1  -5 2110.33 157.748   2
   9  -1  -5 2195.27 140.428   2
   9  -1  -4-7.90518 18.6106   2
  -9   1   4-40.8766 27.1431   2
  -9  -1   4-19.9821 24.1850   2
   9   1  -4 4.14636 21.1873   2
   9   1  -3 104.844 40.6356   2
   9  -1  -3 97.2489 31.2744   2
  -9   1   3 71.7033 28.8964   2
  -9  -1   3 93.6762 36.7576   2
   9   1  -2 243.761 53.2581   2
   9  -1  -2 221.785 40.0468   2
  -9   1   2 331.313 53.1926   2
  -9  -1   2 288.240 58.1207   2
   9  -1  -1 5652.25 207.511   2
   9  -1  -1 6444.68 143.650   1
  -9   1   1 5665.90 218.119   2
  -9  -1   1 5765.70 251.756   2
   9   1  -1 5507.00 236.257   2
   9   1   0 4513.55 212.307   2
   9  -1   0 4515.68 185.007   2
   9   1   0 4886.77 166.787   1
  -9  -1   0 4472.95 225.904   2
   9  -1   0 4395.74 122.036   1
  -9   1   0 4341.26 193.138   2
   9   1   1 865.168 93.7675   2
   9  -1   1 806.289 81.2233   2
  -9  -1  -1 933.340 102.551   2
   9   1   1 858.930 70.7239   1
  -9   1  -1 913.771 89.1674   2
   9  -1   2 9.18553 16.2563   2
  -9  -1  -2-14.3011 22.9933   2
  -9   1  -2 15.1616 23.3749   2
   9   1   2 12.9053 21.5769   1
  -9   1  -3 3368.18 118.783   1
  -9   1  -3 3255.42 177.338   2
   9   1   3 3151.75 152.553   1
   9  -1   3 3204.17 159.901   2
  -9  -1  -3 3291.74 199.159   2
  -9  -1  -4 3908.39 220.055   2
  -9   1  -4 4193.15 146.722   1
  -9  -1  -4 4370.34 175.087   1
  -9   1  -4 4052.77 204.421   2
  -9  -1  -5 16719.3 459.737   2
  -9   1  -5 16956.1 427.113   2
   9   1   5 17070.8 387.033   3
  -9  -1  -5 16718.1 359.371   1
  -9   1  -5 16846.5 322.635   1
  -9  -1  -6 140.185 39.7870   1
  -9   1  -6 172.147 49.3316   2
  -9  -1  -6 149.740 49.5143   2
   9   1   6 106.417 37.5369   3
  -9   1  -6 131.636 30.6841   1
  -9   1  -7 428.964 71.7499   2
  -9  -1  -7 389.222 60.4477   1
   9   1   7 377.640 65.3939   3
  -9  -1  -7 460.496 80.5470   2
  -9   1  -8 71.3205 36.2265   2
  -9  -1  -8 41.8088 24.1454   1
   9  -1   8 20.0672 33.9879   3
  -9  -1  -8 54.4291 31.0308   2
   9   1   8 71.7433 36.2675   3
  -9  -1  -9 124.734 46.0468   2
  -9  -1  -9 47.1528 30.4412   1
  -9   1  -9 104.582 41.0777   2
   9  -1   9 93.9418 47.8777   3
  -9  -1 -10 131.176 48.5058   2
  -9   1 -10 64.1504 30.0480   2
   9  -1  10 23.8610 26.6453   3
  -9  -1 -10 7.06313 17.3347   1
  -9  -1 -11 192.157 55.4206   2
  -9   1 -11 318.685 73.0519   2
   9  -1  11 243.002 70.0635   3
   9   1  11 288.785 66.1856   3
   9  -1  12 20.8362 30.7695   3
   9   1  12 14.6127 29.0687   3
   9  -1  13 91.7141 47.7236   3
   9   1  13 127.787 51.4957   3
   9  -1  14 2062.61 206.997   3
   9   1  14 1816.67 181.742   3
   9  -1  15 618.533 118.515   3
   9   1  15 489.649 101.422   3
   9  -1  16 518.872 112.767   3
   9   1  16 546.431 111.643   3
   9  -1  17 231.736 87.1666   3
   9   1  17 250.078 73.3446   3
   9  -1  18-2.82354 32.9389   3
   9   1  18 16.5307 42.2509   3
   9  -1  19 236.057 89.5962   3
   9   1  19 132.504 57.4565   3
   9   1  20 352.653 104.703   3
   9  -1  20 524.739 124.151   3
   9   1  21 111.849 63.2140   3
   9  -1  21 166.510 79.0405   3
   9   1  22-126.607 71.6490   3
   9  -1  22 19.9390 51.3942   3
   9   1  23 100.764 75.8448   3
   9  -1  23 170.407 90.3525   3
   9  -1  24 61.2357 54.3680   3
   9   1  24 2.22979 56.6643   3
   9   1  25-35.6971 52.7924   3
   9  -2 -26 47.1907 59.1445   2
   9  -2 -25-107.974 58.7526   2
   9  -2 -24 9.22398 36.5421   2
   9   2 -24-17.9094 50.7754   2
   9  -2 -23-54.1971 44.3941   2
   9   2 -23 20.6979 37.6904   2
   9  -2 -22-14.1709 41.7854   2
   9   2 -22 12.2105 40.5799   2
   9  -2 -21 105.970 53.3359   2
   9   2 -21 250.727 100.756   2
   9  -2 -20 15.0241 31.3591   2
   9   2 -20-6.42539 33.6099   2
   9  -2 -19 177.138 65.7089   2
   9   2 -19 430.769 113.397   2
   9  -2 -18 30.9976 31.0484   2
   9   2 -18-20.5799 53.0704   2
   9  -2 -17 1066.67 144.360   2
   9   2 -17 864.967 148.571   2
   9  -2 -16 147.551 56.5286   2
   9   2 -16 132.882 70.5514   2
   9  -2 -15 1408.62 155.260   2
   9   2 -15 1425.39 180.875   2
   9  -2 -14 5324.98 296.951   2
   9   2 -14 5885.42 353.686   2
   9  -2 -13 120.855 39.5257   2
   9   2 -13 160.275 59.8143   2
   9   2 -13 230.117 67.0756   3
   9  -2 -12 117.139 50.4417   2
   9   2 -12 200.447 77.3704   2
   9   2 -12 143.805 56.4236   3
   9  -2 -11 26.8303 52.6941   3
   9  -2 -11 23.2588 37.8809   2
   9   2 -11-28.3162 38.5371   2
   9   2 -11-13.0021 29.7328   3
   9  -2 -10 3932.65 294.169   3
   9  -2 -10 3657.79 206.585   2
   9   2 -10 3431.74 238.407   2
   9   2 -10 3748.05 242.467   3
   9   2  -9 554.308 90.1338   3
   9  -2  -9 457.414 72.1292   2
   9   2  -9 519.737 92.1334   2
  -9  -2   8 743.181 108.380   2
   9  -2  -8 854.577 91.0512   2
   9   2  -8 806.030 111.471   2
   9   2  -8 818.433 106.944   3
   9   2  -7 82.0487 35.0860   3
  -9  -2   7 67.7356 36.4051   2
   9  -2  -7 53.5225 26.1797   2
   9   2  -6 136.902 38.8811   3
  -9  -2   6 62.0224 31.3691   2
   9  -2  -6 141.553 35.1584   2
  -9   2   5 989.789 89.2236   2
  -9  -2   5 946.134 116.252   2
   9  -2  -5 1091.78 90.9719   2
   9   2  -5 998.345 104.100   3
   9  -2  -4 163.708 35.8357   2
   9   2  -4 166.545 43.8936   3
  -9  -2   4 164.998 53.5195   2
  -9   2   4 150.154 35.9067   2
   9   2  -3 90.1913 35.3591   3
   9  -2  -3 67.9781 21.4121   2
  -9   2   3 71.3386 28.3876   2
  -9  -2   3 62.3545 31.7007   2
  -9   2   2 90.0311 27.6327   2
  -9  -2   2 53.6177 26.4346   2
   9  -2  -2 79.1835 23.4101   2
   9  -2  -1 11392.6 264.800   2
  -9  -2   1 11005.2 369.366   2
  -9   2   1 10713.4 276.957   2
   9  -2  -1 11814.3 143.747   1
   9   2   0 7492.40 227.079   1
  -9  -2   0 6537.77 288.738   2
  -9   2   0 6428.79 218.531   2
   9  -2   0 6429.85 199.011   2
  -9  -2  -1 446.876 74.2940   2
  -9   2  -1 379.228 57.0582   2
   9  -2   1 414.047 51.9098   2
   9   2   1 409.707 55.6512   1
  -9   2  -2 2588.44 147.024   2
   9   2   2 2343.72 134.326   1
  -9  -2  -2 2675.47 185.647   2
  -9   2  -3 6217.52 232.429   2
   9   2   3 6265.87 230.544   1
  -9   2  -3 6745.78 145.009   1
  -9  -2  -3 6547.71 297.843   2
  -9   2  -4 3850.51 191.188   2
   9   2   4 4356.45 169.361   3
  -9   2  -4 4208.90 136.559   1
  -9  -2  -4 4433.50 243.125   2
  -9  -2  -5 59416.3 910.319   2
  -9  -2  -5 61734.8 729.110   1
   9   2   5 59682.9 660.689   3
  -9   2  -5 59523.9 775.452   2
  -9  -2  -6 3900.16 233.289   2
   9  -2   6 3591.39 230.735   3
   9   2   6 3824.60 174.004   3
  -9   2  -6 4117.77 207.652   2
  -9  -2  -6 4255.99 197.945   1
  -9  -2  -7 687.463 101.574   2
  -9   2  -7 534.959 77.4660   2
   9  -2   7 462.352 89.0686   3
   9   2   7 667.711 76.3090   3
  -9  -2  -7 623.337 80.2206   1
  -9  -2  -8 1634.74 157.966   2
   9  -2   8 1252.75 141.878   3
   9   2   8 1282.80 111.751   3
  -9  -2  -8 1479.30 127.235   1
  -9   2  -8 1278.92 127.056   2
  -9   2  -9 37.4526 28.5887   2
  -9  -2  -9 34.2795 24.0277   1
   9  -2   9-68.3761 48.8818   3
   9   2   9 23.8925 17.0435   3
  -9  -2  -9 22.0313 22.7287   2
  -9  -2 -10 146.716 42.4554   1
  -9   2 -10 247.780 61.6193   2
   9  -2  10 268.093 79.4885   3
  -9  -2 -10 247.745 62.3506   2
  -9  -2 -11 467.449 81.0791   1
   9  -2  11 648.159 111.105   3
  -9   2 -11 676.384 103.376   2
   9  -2  12 358.172 85.5093   3
   9   2  12 343.320 70.1413   3
   9  -2  13 328.131 87.7857   3
   9   2  13 292.724 68.2131   3
   9  -2  14 173.611 63.9209   3
   9   2  14 78.6104 51.4375   3
  -9  -2 -15 87.3531 40.4555   3
   9  -2  15 56.3087 34.7039   3
   9   2  15 155.361 64.1738   3
   9  -2  16 276.503 88.8554   3
   9   2  16 249.106 81.1856   3
   9   2  17 231.506 77.1773   3
   9  -2  17 155.499 64.3277   3
   9   2  18 42.0993 52.8900   3
   9  -2  18 71.8842 33.6842   3
   9   2  19 59.2473 47.6968   3
   9  -2  19-67.2041 33.2458   3
   9   2  20-20.8090 44.3195   3
   9  -2  20 97.3148 71.8777   3
   9   2  21-8.97769 40.4541   3
   9  -2  21 34.1478 57.9052   3
   9   2  22 0.32124 57.1272   3
   9  -2  22-6.20368 38.8915   3
   9   2  23 21.7552 42.0284   3
   9  -2  23-76.3354 59.6921   3
   9   2  24 34.6213 47.4015   3
   9   2  25-26.0015 39.7132   3
   9  -3 -26-44.5340 40.0690   2
   9  -3 -25 14.4139 33.7166   2
   9  -3 -24 144.933 62.4593   2
   9  -3 -23-49.1211 40.6261   2
   9   3 -23-88.1677 64.1769   2
  -9  -3  22 198.811 68.4877   3
   9  -3 -22 155.797 69.5536   2
   9   3 -22 159.014 83.4935   2
  -9  -3  21-63.8176 72.2795   3
   9   3 -21-38.8084 47.8701   2
  -9  -3  20-13.6329 53.1674   3
   9  -3 -20 139.069 62.8347   2
   9   3 -20 154.056 77.6113   2
  -9  -3  19-2.02042 46.1488   3
   9  -3 -19-76.2479 56.6090   2
   9   3 -19-96.8648 52.0035   2
  -9  -3  18 269.374 98.6162   3
   9  -3 -18 317.574 79.8563   2
   9   3 -18 254.098 90.4861   2
  -9  -3  17 236.091 80.8821   3
   9  -3 -17 266.413 74.7003   2
   9   3 -17 372.846 93.1246   2
  -9  -3  16 316.299 94.5331   3
   9  -3 -16 128.919 55.3880   2
   9   3 -16 198.070 80.6115   2
  -9  -3  15 111.427 43.9082   3
   9  -3 -15 47.4914 36.1665   2
   9   3 -15 149.275 53.1338   2
  -9  -3  14 2273.13 236.166   3
   9  -3 -14 2260.02 186.020   2
   9   3 -14 2365.90 233.610   2
  -9  -3  13 2208.48 224.673   3
   9  -3 -13 2051.32 173.722   2
   9   3 -13 2142.40 213.467   2
   9   3 -13 2220.63 204.211   3
   9   3 -12-6.43998 34.4296   2
  -9  -3  12 13.2565 39.6488   3
   9  -3 -12 37.7032 25.7454   2
   9   3 -12 5.07402 19.3285   3
   9  -3 -11 99.1705 48.6485   3
   9  -3 -11 110.829 42.5891   2
   9   3 -11 111.134 62.0669   2
   9   3 -11 108.762 38.7034   3
   9  -3 -10 936.238 100.340   2
   9   3 -10 1009.38 124.742   3
   9   3 -10 873.854 128.663   2
  -9  -3   9 1814.33 180.961   2
   9  -3  -9 1971.49 138.918   2
   9   3  -9 1828.33 178.796   2
   9   3  -9 1884.49 160.501   3
   9   3  -8 156.813 60.2811   2
   9  -3  -8 170.555 40.4048   2
  -9  -3   8 202.188 60.7663   2
   9   3  -8 190.338 45.9657   3
  -9  -3   7 1336.51 149.618   2
   9  -3  -7 1139.13 93.4995   2
   9   3  -7 1198.20 117.201   3
  -9  -3   6 623.287 99.8025   2
   9  -3  -6 696.229 70.4657   2
   9   3  -6 560.247 77.7174   3
  -9  -3   5 666.897 99.7536   2
   9   3  -5 529.462 71.1230   3
   9  -3  -5 493.324 54.9416   2
  -9   3   4 1163.29 83.1600   2
  -9  -3   4 1323.35 142.129   2
   9   3  -4 1236.43 101.149   3
   9  -3  -4 1429.49 86.1860   2
   9  -3  -3 4043.44 137.920   2
  -9   3   3 3963.50 148.808   2
  -9  -3   3 3960.18 240.163   2
   9   3  -3 4007.43 171.805   3
  -9   3   2 446.129 49.9677   2
   9  -3  -2 502.482 47.6104   2
  -9  -3   2 582.511 94.9737   2
   9   3  -2 496.837 55.6181   3
  -9   3   1 4674.33 162.066   2
  -9  -3   1 4690.70 255.214   2
   9  -3  -1 4521.25 144.250   2
   9   3  -1 4605.71 161.057   3
  -9   3   0 74.5300 22.9685   2
   9   3   0 107.059 35.5013   1
   9   3   0 68.4400 20.4952   3
  -9  -3   0 83.2020 36.8598   2
  -9  -3  -1 808.260 106.842   2
   9   3   1 884.356 87.6329   1
  -9   3  -1 932.920 80.0287   2
  -9   3  -2 4650.63 183.540   2
   9   3   2 4822.96 132.564   3
  -9  -3  -2 4632.87 260.600   2
   9   3   2 4872.19 204.188   1
  -9  -3  -3 563.164 90.1632   2
  -9   3  -3 649.023 72.1770   2
   9   3   3 617.099 78.0890   1
   9   3   3 590.956 49.7275   3
  -9   3  -3 675.831 39.7602   1
  -9   3  -4 5612.77 219.673   2
   9   3   4 5583.26 238.653   1
   9   3   4 5732.83 159.236   3
  -9  -3  -4 6148.09 306.052   2
  -9  -3  -5 1470.75 125.445   1
  -9   3  -5 1317.46 111.986   2
   9   3   5 1309.34 81.7533   3
  -9  -3  -5 1437.85 148.329   2
  -9  -3  -6 8726.60 369.289   2
  -9  -3  -6 9336.31 310.297   1
  -9   3  -6 8369.12 290.318   2
   9   3   6 8241.19 228.573   3
   9   3   6 8920.54 339.354   2
   9  -3   7 73.4201 42.6100   3
  -9   3  -7 97.4291 33.1525   2
   9   3   7 92.2853 35.7344   2
  -9  -3  -7 96.6755 43.6932   2
   9   3   7 83.9462 26.4097   3
  -9  -3  -7 113.090 38.2566   1
  -9  -3  -8 3837.96 249.298   2
   9  -3   8 3601.41 248.275   3
   9   3   8 3677.13 178.042   3
  -9  -3  -8 3879.33 212.623   1
  -9   3  -8 3724.91 211.584   2
  -9  -3  -9 1676.92 171.667   2
   9  -3   9 1723.87 180.650   3
   9   3   9 1777.56 133.279   3
  -9  -3  -9 1678.85 147.650   1
  -9   3  -9 1595.50 143.382   2
   9  -3  10 5351.01 316.331   3
  -9   3 -10 5678.19 280.667   2
  -9  -3 -10 5381.12 267.980   1
   9   3  10 5160.51 241.282   3
   9  -3  11 39.9069 35.7332   3
   9  -3  12 1805.84 196.125   3
   9   3  13 407.855 80.9372   3
   9  -3  13 439.069 102.321   3
   9  -3  14 477.165 105.277   3
   9   3  14 433.432 86.0275   3
  -9  -3 -14 400.382 81.4936   3
   9   3  15 23.4160 28.4371   3
  -9  -3 -15 44.1579 43.4715   3
   9  -3  15-41.0584 50.4657   3
   9   3  16 38.8957 27.1132   3
  -9  -3 -16 62.1139 37.4759   3
   9  -3  16 27.5920 27.9074   3
   9   3  17 712.714 125.014   3
   9  -3  17 744.037 144.441   3
   9   3  18 55.7636 43.1449   3
   9  -3  18 14.8579 39.8469   3
   9   3  19 19.3412 34.0950   3
   9  -3  19-70.1416 59.8458   3
   9   3  20 62.5025 65.9615   3
   9  -3  20 21.0254 39.3621   3
   9   3  21 42.7430 44.7206   3
   9  -3  21 14.6875 35.8313   3
   9   3  22-0.64390 48.7194   3
   9  -3  22-85.5866 40.6280   3
   9   3  23 40.3723 63.0502   3
   9   3  24 57.5235 62.3837   3
   9   3  25 20.7509 31.2352   3
   9  -4 -25-76.0849 48.5491   2
   9  -4 -24 20.9508 35.0434   2
  -9  -4  23-49.5950 61.2444   3
   9  -4 -23 48.5870 42.6848   2
  -9  -4  22 14.7283 73.2621   3
   9  -4 -22-22.9461 31.9855   2
   9   4 -22 20.8414 59.1987   2
  -9  -4  21 93.5676 38.9701   3
   9  -4 -21 79.8860 44.8740   2
   9   4 -21 121.112 67.7586   2
  -9  -4  20 37.6413 72.0777   3
   9  -4 -20-20.3807 23.8517   2
   9   4 -20 119.510 84.3936   2
  -9  -4  19 40.7740 57.8219   3
   9  -4 -19 119.743 51.9237   2
   9   4 -19 163.683 88.3154   2
  -9  -4  18 1197.31 199.982   3
   9  -4 -18 761.843 121.612   2
   9   4 -18 1177.86 188.419   2
  -9  -4  17 88.4149 42.5773   3
   9  -4 -17 152.891 54.7781   2
   9   4 -17 291.936 97.5633   2
  -9  -4  16 678.223 146.483   3
   9  -4 -16 359.356 73.5151   2
   9   4 -16 615.983 129.645   2
   9   4 -15 14.5964 50.9997   2
  -9  -4  15-89.8920 64.7440   3
   9  -4 -15-14.1678 31.1085   2
  -9  -4  14 1104.32 171.582   3
   9  -4 -14 1106.61 130.704   2
   9   4 -14 1143.65 170.006   2
  -9  -4  13 2295.15 230.862   3
   9   4 -13 2434.64 213.960   3
   9  -4 -13 2545.71 182.663   2
   9   4 -13 2243.81 230.943   2
  -9  -4  12 5.97611 37.4662   3
   9  -4 -12-5.61972 32.0374   2
   9   4 -12 22.6727 44.9885   2
   9   4 -12 51.7602 37.9171   3
  -9  -4  11 5158.16 319.800   3
   9  -4 -11 5377.24 244.021   2
   9   4 -11 5672.81 341.399   2
   9   4 -11 5339.77 297.290   3
  -9  -4  10 1886.78 182.358   3
   9  -4 -10 1903.70 135.249   2
   9   4 -10 1681.84 184.330   2
   9   4 -10 1714.38 160.629   3
  -9  -4   9 1219.72 144.594   3
  -9  -4   9 1406.47 163.998   2
   9  -4  -9 1244.09 101.456   2
   9   4  -9 1114.83 144.375   2
   9   4  -9 1368.78 134.810   3
  -9  -4   8 48.9695 28.8830   2
   9  -4  -8 28.0397 16.4788   2
   9   4  -8 44.6177 36.1401   2
   9   4  -8 3.23464 28.0135   3
  -9  -4   7 59.9156 37.4945   2
   9   4  -7 64.0804 39.8040   2
   9   4  -7 70.5740 30.9562   3
   9  -4  -7 67.1004 22.2558   2
   9  -4  -6 215.467 34.3798   2
  -9  -4   6 107.559 34.8234   2
   9   4  -6 190.465 45.4191   3
   9   4  -6 196.136 58.6536   2
  -9  -4   5 385.530 85.7999   2
   9   4  -5 455.928 65.3439   3
   9   4  -5 422.727 83.7496   2
   9  -4  -5 416.814 39.4793   2
  -9  -4   4 178.521 60.2196   2
   9  -4  -4 115.708 15.7108   1
   9  -4  -4 86.9894 17.1819   2
   9   4  -4 87.8375 28.7185   3
  -9  -4   3 165.329 49.4379   2
   9  -4  -3 192.554 22.8939   2
   9   4  -3 211.060 37.2207   3
  -9   4   2 163.186 25.3964   2
  -9  -4   2 201.136 54.8810   2
   9   4  -2 243.857 33.3407   3
  -9   4   1 16.7312 10.0578   2
  -9  -4   1 27.9923 24.0599   2
   9   4  -1 33.3055 11.7008   3
  -9   4   0 207.076 32.2876   2
   9   4   0 258.349 53.7538   1
  -9  -4   0 204.592 56.7579   2
   9   4   1-1.46281 19.8476   1
  -9   4  -1 32.7937 15.8774   2
   9   4   1 12.9484 27.2322   2
  -9  -4  -1-3.78989 23.1300   2
  -9   4  -2 3433.54 147.327   2
   9   4   2 3631.06 218.530   2
  -9  -4  -2 3911.42 250.432   2
   9   4   2 3594.60 192.517   1
   9   4   3 2680.02 190.702   2
  -9   4  -3 2478.39 132.721   2
  -9   4  -3 3054.84 69.5378   1
   9   4   3 2534.32 169.122   1
  -9  -4  -3 2855.08 213.972   2
   9   4   4 1209.96 127.651   2
  -9   4  -4 1343.39 104.852   2
   9   4   4 1113.50 119.659   1
  -9  -4  -4 1311.93 150.402   2
   9   4   5 71.1746 17.6570   3
   9   4   5 100.361 41.8640   2
  -9   4  -5 49.2348 21.7802   2
  -9  -4  -5 77.3267 31.8969   2
   9   4   5 49.8168 25.8331   1
   9   4   6 4041.20 234.643   2
  -9   4  -6 4227.16 202.870   2
   9   4   6 4257.64 141.752   3
  -9  -4  -6 4233.35 269.393   2
   9  -4   7 2078.61 194.945   3
  -9  -4  -7 2583.93 178.724   1
   9   4   7 2247.99 179.269   2
  -9   4  -7 2488.18 164.019   2
   9   4   7 2237.96 121.553   3
  -9  -4  -7 2534.09 210.231   2
   9   4   8 63.2554 27.3475   3
  -9  -4  -8 30.1313 19.4145   1
  -9  -4  -8 74.6336 39.2833   2
  -9   4  -8 41.5287 26.1130   2
   9  -4   8 17.7070 30.1501   3
   9   4   9 311.248 56.4685   3
   9  -4   9 310.594 84.3924   3
   9   4  10 410.392 67.8876   3
   9  -4  10 434.197 101.115   3
   9   4  11 482.516 78.2781   3
   9  -4  11 410.662 102.583   3
   9  -4  12 77.1153 38.8405   3
   9  -4  13 380.466 102.241   3
  -9  -4 -13 371.633 76.0943   3
   9   4  14-2.83614 24.6360   3
  -9  -4 -14 17.2609 21.6828   3
   9  -4  14-32.1228 41.8045   3
  -9  -4 -15 1027.51 134.787   3
   9  -4  15 1184.32 175.542   3
   9   4  15 1349.19 158.768   3
   9   4  16 494.427 104.763   3
   9  -4  16 375.574 104.673   3
  -9  -4 -16 490.784 97.1595   3
   9   4  17 133.724 55.8599   3
   9  -4  17 117.638 60.3643   3
   9   4  18 4.55953 32.4983   3
   9  -4  18 12.0161 36.2806   3
   9   4  19 123.640 57.1778   3
   9  -4  19 136.067 73.6401   3
   9   4  20-34.8571 70.4086   3
   9  -4  20-81.7565 62.7096   3
   9   4  21 52.1727 44.1792   3
   9  -4  21 3.46706 50.1819   3
   9   4  22 29.5151 36.4737   3
   9   4  23 28.3269 42.7458   3
  -9  -5  23 19.0167 39.9624   3
  -9  -5  22-173.343 93.2551   3
   9  -5 -22-5.99351 38.8475   2
   9   5 -22-150.154 83.6329   2
  -9  -5  21 311.682 120.803   3
   9  -5 -21 21.0195 48.1602   2
   9   5 -21 184.993 88.5832   2
  -9  -5  20-131.697 76.7278   3
   9  -5 -20-7.20959 21.9085   2
   9   5 -20-42.0974 62.5598   2
  -9  -5  19 229.966 96.6807   3
   9  -5 -19 147.793 55.3824   2
   9   5 -19 132.050 74.6398   2
  -9  -5  18 77.9013 59.6048   3
   9  -5 -18-48.6127 38.7215   2
   9   5 -18 58.5565 55.8453   2
   9   5 -17 224.630 86.3816   2
  -9  -5  17 165.284 66.2393   3
   9  -5 -17 103.983 44.2406   2
  -9  -5  16-23.5871 43.7043   3
   9  -5 -16 93.8917 48.2734   2
   9   5 -16-77.5669 68.2829   2
  -9  -5  15 1168.50 177.939   3
   9  -5 -15 1158.44 130.169   2
   9   5 -15 1252.57 187.773   2
  -9  -5  14 587.573 124.429   3
   9  -5 -14 565.417 89.9410   2
   9   5 -14 675.427 126.064   2
   9   5 -13 175.790 74.8511   2
  -9  -5  13 219.938 79.3199   3
   9  -5 -13 202.526 52.6880   2
   9   5 -12 930.213 147.653   2
  -9  -5  12 903.259 140.383   3
   9  -5 -12 844.564 96.6746   2
   9   5 -12 754.677 120.369   3
  -9  -5  11 1832.65 192.247   3
   9  -5 -11 2062.72 141.717   2
   9   5 -11 1700.91 198.355   2
   9   5 -11 1670.30 167.295   3
  -9  -5  10 1683.48 172.332   3
   9  -5 -10 1669.57 113.543   2
   9   5 -10 1418.65 177.535   2
   9   5 -10 1484.38 153.030   3
  -9  -5   9 28.6121 31.1846   3
   9  -5  -9 3.35430 11.1555   2
   9   5  -9 7.91008 19.5468   3
   9   5  -9-31.9985 45.6925   2
   9   5  -8 992.545 138.766   2
  -9  -5   8 989.653 122.703   3
   9  -5  -8 1073.44 69.7138   2
   9   5  -8 940.520 109.802   3
   9  -5  -7 30.4472 16.0957   1
   9  -5  -7 28.1828 10.4791   2
  -9  -5   7-18.2755 31.7022   3
  -9  -5   7 18.2747 34.5547   2
   9   5  -7 25.8074 25.6603   3
   9   5  -7 50.3863 42.5598   2
  -9  -5   6 56.3986 25.4832   2
   9  -5  -6 93.2144 20.3300   1
   9   5  -6 103.240 30.7747   3
   9   5  -6 118.395 50.2555   2
  -9  -5   5 55.3336 35.8536   2
   9   5  -5 10.6746 12.8574   3
   9   5  -5 70.3835 34.7708   2
   9  -5  -5 41.0467 12.5564   1
   9   5  -4 613.438 99.2482   2
   9   5  -4 563.981 62.1908   3
  -9  -5   4 537.994 101.766   2
   9   5  -3 336.682 73.5979   2
  -9  -5   3 241.099 70.3107   2
   9   5  -3 305.262 39.5883   3
   9   5  -2 530.022 92.8033   2
   9   5  -2 482.943 41.5911   3
  -9  -5   2 600.908 105.256   2
   9   5  -1 407.116 82.5261   2
  -9  -5   1 391.525 83.4472   2
   9   5   0 258.977 62.9224   1
   9   5   0 211.583 58.1024   2
  -9   5   0 314.586 30.5363   2
  -9  -5   0 262.212 65.7523   2
   9   5   1 1813.33 164.786   2
  -9  -5  -1 1712.56 170.956   2
  -9   5  -1 1917.32 91.7745   2
   9   5   1 1913.32 145.980   1
   9   5   2 41.4316 31.9561   1
  -9   5  -2-11.8125 11.8654   2
   9   5   2 5.69251 24.7882   2
  -9  -5  -2 14.7336 17.4809   2
  -9  -5  -3 159.650 57.7264   2
   9   5   3 195.924 51.5576   1
   9   5   3 124.864 43.0344   2
  -9   5  -3 138.297 31.6215   2
  -9  -5  -4 45.5411 34.8669   2
  -9   5  -4 32.9487 20.3605   2
   9   5   4 6.57359 33.4992   1
   9   5   4 35.0699 20.8027   2
   9   5   5 48.7188 29.9216   2
  -9  -5  -5 11.3189 29.6640   2
  -9   5  -5 61.4232 22.2969   2
   9   5   5 133.587 47.3932   1
   9   5   6-9.39169 30.7888   2
  -9  -5  -6 19.1445 25.1778   2
  -9   5  -6-9.23490 14.7554   2
   9  -5   7 2333.35 215.311   3
   9   5   7 2488.40 194.662   2
  -9  -5  -7 2629.31 227.389   2
  -9   5  -7 2414.42 160.421   2
   9   5   8 16.2053 22.2391   2
   9  -5   8-15.4948 32.5626   3
   9  -5   9 179.170 65.1909   3
   9  -5  10 379.412 100.089   3
   9  -5  11 29.6896 44.3266   3
   9   5  12 257.876 56.8669   3
   9  -5  12 485.993 116.066   3
   9  -5  13 192.956 86.3332   3
  -9  -5 -14 220.226 57.0217   3
   9  -5  14 273.787 92.2127   3
   9  -5  15 509.547 117.178   3
   9   5  15 559.820 104.036   3
   9   5  16 285.620 75.9676   3
   9  -5  16 193.830 74.4779   3
   9   5  17 64.2091 32.9718   3
   9  -5  17 81.3198 60.1505   3
   9   5  18 8.76011 29.4485   3
   9  -5  18 113.768 73.2561   3
   9   5  19-9.47680 33.3533   3
   9  -5  19 30.2247 36.9776   3
   9  -5  20 582.796 141.983   3
  -9  -6  22 53.4312 57.9297   3
  -9  -6  21-12.3727 58.8628   3
  -9  -6  20-49.4072 59.5105   3
   9   6 -20 24.9150 49.9874   2
  -9  -6  19 54.1253 65.9746   3
   9   6 -19 100.587 59.3626   2
  -9  -6  18 49.2846 54.8897   3
   9  -6 -18-47.0806 40.4634   2
  -9  -6  17 70.0170 57.2915   3
   9  -6 -17-1.99968 18.9524   2
   9   6 -17 27.7107 64.3418   2
  -9  -6  16-32.2852 49.5420   3
   9  -6 -16 54.2384 34.6167   2
   9   6 -16 68.5903 65.3386   2
  -9  -6  15 91.3475 56.1191   3
   9  -6 -15 101.000 36.9409   2
   9   6 -15 79.4026 58.8102   2
  -9  -6  14 7.88703 32.0324   3
   9  -6 -14 15.1380 21.1009   2
   9   6 -14-38.4744 58.1040   2
  -9  -6  13 485.613 109.810   3
   9  -6 -13 510.647 72.8007   2
   9   6 -13 513.752 122.084   2
   9  -6 -12 1476.51 112.979   2
   9   6 -12 1213.41 153.870   3
   9   6 -12 1412.07 186.117   2
  -9  -6  12 1126.14 160.203   3
  -9  -6  11 78.2028 45.8126   3
   9  -6 -11 41.2178 20.4330   2
   9   6 -11 37.1681 29.2371   3
   9   6 -11 123.335 66.4066   2
   9  -6 -10 1218.81 75.6980   2
   9   6 -10 1190.54 138.641   3
   9   6 -10 1037.94 151.936   2
   9  -6 -10 1279.96 71.6577   2
  -9  -6  10 1175.85 146.954   3
  -9  -6   9 1884.28 176.502   3
   9   6  -9 1742.54 195.183   2
   9  -6  -9 1572.67 111.991   1
   9  -6  -9 1784.12 64.6921   2
   9   6  -9 1826.54 163.605   3
  -9  -6   8 1459.39 147.985   3
   9   6  -8 1307.21 131.356   3
   9   6  -8 1320.14 167.878   2
   9  -6  -8 1220.24 89.7123   1
  -9  -6   7-30.5936 32.2212   3
   9  -6  -7-4.57743 17.0219   1
   9   6  -7 37.3332 34.8961   3
   9   6  -7-7.51852 38.8475   2
  -9  -6   6 361.318 67.3299   3
   9   6  -6 299.649 56.9487   3
   9   6  -6 371.734 90.3423   2
   9   6  -5 1961.89 125.821   3
   9   6  -5 2045.25 197.077   2
  -9  -6   4 1644.46 185.403   2
   9   6  -4 1517.73 97.5524   3
   9   6  -4 1549.82 170.908   2
  -9  -6   3 1085.99 150.204   2
   9   6  -3 1045.68 140.917   2
  -9  -6   2 94.7278 43.2677   2
   9   6  -2 197.197 65.2863   2
  -9  -6   1 1889.27 189.907   2
   9   6  -1 1999.86 158.378   1
   9   6  -1 1812.86 178.812   2
   9   6   0 1031.46 132.929   2
   9   6   0 1230.09 126.227   1
  -9  -6   0 1099.45 146.194   2
  -9   6  -1 98.4447 19.5400   2
   9   6   1 128.642 49.8462   1
   9   6   1 154.871 49.1062   2
  -9   6  -1 132.174 18.3948   2
  -9  -6  -1 90.3666 44.2604   2
  -9   6  -2 6890.58 172.155   2
   9   6   2 7744.52 350.555   2
  -9  -6  -2 7605.84 383.392   2
   9   6   2 7713.58 320.052   1
   9   6   3 1356.21 147.745   2
  -9   6  -3 1438.68 89.8387   2
  -9  -6  -3 1432.43 167.636   2
   9   6   3 1556.86 151.022   1
  -9   6  -3 1259.04 49.1570   1
  -9  -6  -4 121.990 55.6150   2
  -9   6  -4 129.747 32.7041   2
   9   6   4 159.885 61.7829   1
   9   6   4 77.5631 37.7169   2
   9   6   5-24.1747 35.3894   2
  -9   6  -5-2.36385 13.9689   2
   9   6   5-3.04529 29.0156   1
   9   6   6 603.350 97.8291   2
   9  -6   6 558.108 113.031   3
  -9   6  -6 570.718 72.2546   2
   9   6   7-10.0600 23.4656   2
   9  -6   7-34.2139 33.3423   3
   9   6   8 198.573 61.6811   2
   9  -6   8 186.639 71.6496   3
   9  -6   9 142.683 60.9644   3
   9  -6  10 2770.86 255.549   3
   9  -6  11 48.9382 52.6540   3
   9  -6  12 46.5705 45.3236   3
   9  -6  13 42.2264 47.2377   3
   9  -6  14 181.180 78.7205   3
   9  -6  15 39.7097 47.2410   3
   9  -6  16 60.8162 41.7129   3
   9  -6  17-25.9120 80.1723   3
   9  -6  18 157.452 79.3243   3
   9  -6  19 291.486 106.878   3
  -9  -7  21-159.128 88.1174   3
  -9  -7  20-35.6974 71.7027   3
  -9  -7  19-61.2137 57.2073   3
   9   7 -19-30.6210 59.2746   2
  -9  -7  18 48.7510 66.5131   3
   9   7 -18 153.589 73.2219   2
  -9  -7  17 93.6067 63.9955   3
   9   7 -17 40.6923 38.6484   2
  -9  -7  16-17.2836 57.5018   3
   9   7 -16-62.4536 57.1887   2
  -9  -7  15 18.2678 29.5573   3
   9   7 -15 81.3991 59.4625   2
  -9  -7  14 79.0808 45.4788   3
   9   7 -14 61.5117 52.8187   2
  -9  -7  13 749.931 130.241   3
   9  -7 -13 553.327 81.5293   1
   9   7 -13 803.786 156.043   2
  -9  -7  12 41.8957 33.4098   3
   9  -7 -12 16.7704 13.7395   1
   9   7 -12 25.6004 28.4749   3
   9   7 -12-21.4865 48.6532   2
  -9  -7  11 756.784 124.291   3
   9   7 -11 670.683 110.646   3
   9  -7 -11 651.605 79.1939   1
   9   7 -11 682.067 138.321   2
  -9  -7  10 9.32097 32.6024   3
   9   7 -10 124.254 47.7733   3
   9   7 -10 106.045 58.0895   2
  -9  -7   9 124.097 52.8172   3
   9   7  -9 77.2480 38.5676   3
   9  -7  -9 90.0804 26.7821   1
   9   7  -9 34.2339 33.9436   2
  -9  -7   8-41.9133 38.7668   3
   9  -7  -8-26.5444 19.5387   1
   9   7  -8-26.0888 26.0438   3
   9   7  -8 14.2221 32.7570   2
  -9  -7   7 44.3356 31.8014   3
   9   7  -7 37.8535 28.3208   3
   9   7  -7 21.8641 36.8864   2
   9   7  -6 2.44750 31.4140   2
  -9  -7   6-11.5329 18.3203   3
   9   7  -5 2285.83 215.635   2
   9   7  -4 335.574 85.0221   2
   9   7  -3 394.699 86.9651   2
   9   7  -2 179.246 63.0691   2
   9   7  -2 241.107 61.7269   1
   9   7  -1 5316.28 291.482   1
   9   7  -1 6113.44 335.385   2
   9   7   0 1865.44 184.959   2
   9   7   0 2169.54 175.724   1
   9   7   1 152.841 50.7515   1
   9   7   1 104.603 45.4677   2
  -9   7  -2 200.656 25.7218   2
   9   7   2 216.748 64.6795   2
  -9   7  -2 167.303 20.3134   2
   9   7   2 122.899 41.0870   1
  -9   7  -3-2.22131 7.82523   1
  -9   7  -3 6.15218 11.6249   2
   9   7   3-30.9145 26.3150   1
  -9   7  -3-17.9827 10.8167   2
   9   7   3 6.90615 33.9220   2
   9   7   4 656.934 109.006   1
  -9   7  -4 621.112 69.5599   2
  -9   7  -4 574.898 59.8672   2
   9   7   4 589.025 100.487   2
  -9   7  -4 544.322 42.5662   1
   9   7   5 317.069 73.4101   2
  -9   7  -5 250.291 44.6412   2
   9   7   5 252.389 70.8552   1
   9   7   6 172.001 57.7889   2
  -9   7  -6 145.301 35.9290   2
   9  -7   6 252.765 92.8167   3
   9   7   7 41.1001 39.7988   2
   9  -7   7-12.4567 44.7093   3
   9  -7   8 437.400 102.473   3
   9   7   8 466.600 97.2684   2
   9  -7   9 117.053 65.1889   3
   9  -7  10-26.6424 40.9104   3
   9  -7  11 630.771 133.584   3
   9  -7  12 62.6018 40.1145   3
   9  -7  13 196.567 83.1374   3
   9  -7  14 404.408 115.837   3
   9  -7  15-51.7968 58.9682   3
   9  -7  16 12.6782 62.0575   3
   9  -7  17 570.549 143.685   3
   9  -7  18 40.0264 44.1850   3
  -9  -8  21 21.7868 60.1027   3
  -9  -8  20-149.716 82.6802   3
  -9  -8  19-6.26761 32.9038   3
  -9  -8  18 53.8643 61.9313   3
   9   8 -18 34.8716 27.6656   2
  -9  -8  17-105.256 65.2286   3
   9   8 -17-122.631 72.2820   2
  -9  -8  16-6.92974 39.9075   3
   9   8 -16-29.9371 52.8096   2
  -9  -8  15 94.1117 76.1595   3
   9   8 -15-47.2972 58.7507   2
  -9  -8  14-21.2814 40.8652   3
   9   8 -14 28.6351 52.7852   2
  -9  -8  13 67.6004 49.6466   3
   9   8 -13 99.3820 61.4440   2
  -9  -8  12 523.715 111.679   3
   9   8 -12 564.579 132.165   2
  -9  -8  11 67.0132 35.4725   3
   9   8 -11 151.276 60.2924   2
  -9  -8  10-2.02078 30.5292   3
   9   8 -10 20.8415 35.2503   2
  -9  -8   9 42.3841 27.6181   3
   9   8  -9 39.5003 42.4693   2
  -9  -8   8 1038.91 124.178   3
   9   8  -8 938.699 152.254   2
   9   8  -7 263.033 82.3150   2
  -9  -8   7 249.566 57.3439   3
   9   8  -6 72.9396 52.1227   2
  -9  -8   6 60.1088 31.6402   3
   9   8  -5-108.301 58.7403   2
   9   8  -4 169.508 63.0953   2
   9   8  -3 50.6410 45.8084   2
   9   8  -2 197.645 68.1877   2
   9   8  -2 165.571 58.1146   1
   9   8  -1 492.433 89.7248   1
   9   8  -1 252.712 74.0414   2
   9   8   0 412.906 79.9582   1
   9   8   0 236.327 71.5495   2
   9   8   1 16.6760 30.9976   1
   9   8   1 8.75139 26.4240   2
   9   8   2 194.550 66.0388   2
   9   8   2 169.257 61.2709   1
  -9   8  -3 651.274 43.8401   2
   9   8   3 1018.17 142.056   2
   9   8   3 918.950 130.719   1
  -9   8  -3 814.385 52.2266   2
  -9   8  -3 873.702 61.7330   1
   9   8   4 66.0008 44.0375   2
   9   8   4 83.7910 48.1386   1
  -9   8  -4 38.4840 18.0996   2
  -9   8  -4 52.7613 17.8501   1
  -9   8  -4 59.0842 16.8607   2
  -9   8  -5 343.193 41.6074   1
   9   8   5 351.270 85.8148   2
  -9   8  -5 329.029 47.3982   2
   9  -8   5 278.385 84.6412   3
  -9   8  -5 342.011 55.0448   2
   9   8   5 292.140 75.2872   1
   9   8   6 10.4987 21.8115   2
  -9   8  -6 2.94546 13.1672   2
  -9   8  -6 19.1664 20.0382   2
   9  -8   6-43.4791 41.4989   3
   9   8   7 32.6296 39.4735   2
  -9   8  -7 25.8997 12.6329   2
   9  -8   7 7.96289 37.1333   3
   9   8   8 7.66576 22.2279   2
   9  -8   8-6.92246 44.4767   3
  -9   8  -9 333.451 69.6266   2
   9  -8   9 193.868 75.9936   3
  -9   8 -10 70.3570 35.6893   2
   9  -8  10 129.204 77.5321   3
   9  -8  11-38.1198 44.2636   3
   9  -8  12 600.203 135.185   3
   9  -8  13-27.4143 52.3560   3
   9  -8  14 16.9351 41.0215   3
   9  -8  15 121.496 67.2590   3
   9  -8  16 194.894 86.4487   3
  -9  -9  18-126.170 72.1772   3
  -9  -9  17 26.8665 36.2253   3
  -9  -9  16 19.8205 39.3849   3
   9   9 -16-36.1968 48.2260   2
  -9  -9  15-3.16814 26.9818   3
   9   9 -15-20.9071 41.0183   2
  -9  -9  14 99.8243 60.8590   3
   9   9 -14 20.9102 40.1455   2
  -9  -9  13 237.381 82.2690   3
   9   9 -13 132.288 65.5323   2
  -9  -9  12 137.111 63.1814   3
   9   9 -12 2.39481 36.1368   2
  -9  -9  11 28.1811 33.8195   3
   9   9 -11 11.8960 37.6518   2
  -9  -9  10 0.94108 25.3528   3
   9   9 -10-104.154 55.8844   2
   9   9  -9 207.621 84.2293   2
  -9  -9   9 94.3401 47.0121   3
   9   9  -8-5.18321 24.4133   2
  -9  -9   8 6.89509 21.2179   3
   9   9  -7 70.6015 54.1253   2
   9   9  -6 838.466 141.795   2
   9   9  -5 323.574 87.5232   2
   9   9  -4 36.3672 39.7514   2
   9   9  -3 85.8744 44.3439   2
   9   9  -3 106.664 51.0602   1
   9   9  -2 42.7041 35.8547   1
   9   9  -2 22.4853 30.7818   2
   9   9  -1-2.32327 23.2745   2
   9   9  -1 56.5795 35.6353   1
   9   9   0 108.637 56.7450   2
   9   9   0 19.6112 35.8611   1
   9   9   1 1332.35 167.681   2
   9   9   1 1144.76 155.555   1
   9   9   2 363.219 88.8515   2
   9   9   2 477.735 97.9991   1
   9   9   3 82.9002 40.1677   1
   9   9   3 39.7708 21.8721   2
   9   9   4-11.2422 42.1297   1
   9   9   4 21.7891 24.6985   2
   9   9   5 93.6466 41.5768   2
   9   9   5 120.549 51.3748   1
   9  -9   5 121.267 74.5602   3
   9   9   6 248.723 70.9554   2
   9  -9   6 216.019 81.1814   3
   9   9   7-39.9693 33.7441   2
   9  -9   7 111.199 69.6103   3
   9  -9   8 110.189 60.6551   3
   9   9   8 27.3676 20.5008   2
  -9   9  -9 17.8300 23.8744   2
   9  -9   9 48.1213 49.8434   3
  -9   9 -10 150.485 53.4514   2
   9  -9  10 96.4955 68.4995   3
   9  -9  11 46.3982 54.6190   3
  -9   9 -11-24.9710 29.3474   2
  -9   9 -12 106.878 55.8877   2
   9  -9  12 175.634 80.1280   3
  -9   9 -13 49.7918 42.1126   2
   9  -9  13 1.31266 36.3299   3
  -9   9 -14-6.16106 25.8008   2
   9  -9  14 8.09760 50.1311   3
  -9   9 -15 39.0441 47.9949   2
   9  10 -14-115.127 68.8900   2
   9  10 -13 158.664 90.1394   2
   9  10 -12-47.5556 49.0979   2
   9  10 -11 282.619 99.7474   2
   9  10 -10 55.7194 60.8761   2
   9  10  -9 12.7311 35.1639   2
   9  10  -8 0.27834 29.4077   2
   9  10  -7-52.0763 52.9354   2
   9  10  -6 16.9664 31.3357   2
   9  10  -5 283.648 82.7155   1
   9  10  -5 120.091 62.9668   2
   9  10  -4-55.4014 41.1394   1
   9  10  -4-64.3470 36.3301   2
   9  10  -3 120.997 54.9750   1
   9  10  -3-14.1179 24.8108   2
   9  10  -2 10.4949 26.0211   2
   9  10  -2 102.296 42.9317   1
   9  10  -1 24.9464 34.3871   1
   9  10  -1 29.0561 37.8491   2
   9  10   0 347.031 96.6832   2
   9  10   0 338.782 78.7274   1
   9  10   1-56.8062 53.2822   1
   9  10   1 32.7181 21.6418   2
   9  10   2 195.225 65.4795   1
   9  10   2 209.495 71.7352   2
   9  10   3 18.3691 34.1251   2
   9  10   3 61.1111 41.0284   1
   9  10   4 208.996 77.2368   2
   9 -10   4 175.788 77.0577   3
   9  10   4 256.496 86.0879   1
   9  10   5 8.49310 20.4260   2
   9 -10   5 0.57402 34.0002   3
   9  10   6 61.6269 38.4563   2
   9 -10   6 70.5884 37.9641   3
   9  10   7-83.4852 41.6660   2
   9 -10   7-121.237 67.2334   3
   9 -10   8 162.266 79.2622   3
   9 -10   9 51.6449 51.0604   3
   9 -10  10 199.494 81.0152   3
   9 -10  11 41.5408 50.2220   3
   9 -10  12 8.93460 43.6270   3
   9  11 -12 74.7690 70.6112   2
   9  11 -11 37.5666 50.7999   2
   9  11 -10 5.73234 29.2572   2
   9  11  -9 13.8537 26.8130   2
   9  11  -8-11.3023 30.1945   2
   9  11  -7 87.9671 56.3590   2
   9  11  -6 203.185 90.7177   2
   9  11  -6 269.450 85.6609   1
   9  11  -5 79.7868 49.5592   2
   9  11  -5 74.6920 51.4860   1
   9  11  -4 62.1218 63.7962   1
   9  11  -4 25.2480 28.7871   2
   9  11  -3-39.4322 38.3762   2
   9  11  -3 0.65369 27.1438   1
   9  11  -2 86.1051 54.3465   1
   9  11  -2-14.4468 23.9189   2
   9  11  -1 74.0589 53.0063   1
   9  11  -1 68.0993 45.7992   2
   9  11   0 63.5906 62.4966   1
   9  11   0 20.7183 45.1387   2
   9  11   1 10.7380 42.5001   1
   9  11   1 66.5825 44.6026   2
   9  11   2-0.91403 36.4100   2
   9  11   2 50.1522 55.8283   1
   9  11   3 94.4167 47.7169   1
   9  11   3 2.94390 21.4037   2
   9 -11   3 46.1966 62.5306   3
   9 -11   4-207.250 85.1464   3
   9  11   4-82.3725 47.5049   2
   9  11   5 292.900 84.9893   2
   9 -11   5 314.444 101.648   3
   9  11   6 309.448 84.5551   2
   9 -11   6 460.413 130.665   3
   9 -11   7 16.9541 39.5584   3
   9 -11   8 43.2770 41.7053   3
   9 -11   9 110.152 77.9616   3
   9  12 -10-188.055 82.7078   2
   9  12  -9 74.0039 59.4455   2
   9  12  -8-1.90896 20.3519   2
   9  12  -7-80.0564 55.5428   2
   9  12  -6 154.747 72.6522   2
   9  12  -5-63.8059 49.1420   2
   9  12  -4-75.4927 50.7985   2
   9  12  -3-30.6982 35.3447   2
   9  12  -2 73.3880 50.5972   2
   9  12  -1 7.04635 39.3585   2
   9  12   0 35.2121 33.8377   2
   9  12   1 45.0386 49.0946   2
   9 -12   1 216.275 90.7599   3
   9  12   2 29.9901 43.4892   2
   9 -12   2-111.005 65.4520   3
   9  12   3 10.2415 25.7728   2
   9 -12   3 62.2580 50.0101   3
   9  12   4-8.72982 21.0285   2
   9 -12   4-85.0685 61.2603   3
   9 -12   5 108.564 67.3483   3
   9  12   5 11.0472 19.8127   2
  10   0 -25 53.4746 55.6688   2
  10   0 -24 88.5848 80.2464   2
  10   0 -23-20.8945 29.3629   2
  10   0 -22 271.056 93.1488   2
  10   0 -21 32.4578 47.1753   2
  10   0 -20 648.360 129.639   2
  10   0 -19-13.9492 39.7935   2
  10   0 -18-20.9163 33.7466   2
  10   0 -17 19.7076 56.4903   2
  10   0 -16 3740.51 284.779   2
  10   0 -15-21.7862 41.6727   2
  10   0 -14 7690.83 381.917   2
  10   0 -13 8.14986 29.5882   2
  10   0 -12 227.572 75.7788   3
  10   0 -12 123.167 47.3600   2
  10   0 -11 14.7947 28.7033   3
  10   0 -11 31.9707 35.5842   2
  10   0 -10 2220.96 183.459   2
  10   0 -10 2815.70 234.288   3
  10   0  -9 15.2684 19.2608   3
  10   0  -9-43.1368 41.2403   2
  10   0  -8 104.322 46.3543   3
  10   0  -8 94.5519 40.6444   2
 -10   0   8 80.4256 34.9250   2
  10   0  -7-9.10183 26.8904   3
 -10   0   7 7.40077 23.4243   2
  10   0  -7 8.60206 22.6186   2
 -10   0   6 81.7987 38.8810   2
  10   0  -6-12.7366 28.3777   2
 -10   0   5-22.2122 33.0034   2
  10   0  -5 64.0602 35.7813   2
  10   0  -4 1298.47 119.315   2
 -10   0   4 1357.30 127.798   2
  10   0  -3 0.70146 20.6699   2
 -10   0   3 27.3328 22.1679   2
 -10   0   2 2475.84 164.797   2
  10   0  -2 2590.21 162.527   2
  10   0  -1 5.62368 18.8013   2
 -10   0   1-8.59709 17.8162   2
 -10   0   0 26.6190 18.6310   2
  10   0   0 79.5194 25.0742   1
  10   0   0 32.1106 22.7076   2
 -10   0  -1-5.44712 19.8580   2
  10   0   1-12.5627 16.8092   1
  10   0   1 0.18858 21.7470   2
  10   0   2 2514.73 125.145   1
  10   0   2 2421.20 154.310   2
 -10   0  -2 2451.30 171.021   2
  10   0   3 9.88426 20.7849   2
 -10   0  -3 11.9579 16.0428   2
 -10   0  -4 4499.75 239.179   2
 -10   0  -4 4701.81 173.279   1
  10   0   4 4443.38 215.100   2
 -10   0  -5-11.3351 19.1125   1
  10   0   5 21.8970 29.9983   2
 -10   0  -5-23.7400 24.0303   2
 -10   0  -6 307.999 67.2183   2
 -10   0  -6 268.173 46.5501   1
 -10   0  -7 25.4585 23.1897   1
 -10   0  -7-31.9850 25.7399   2
 -10   0  -8 4736.62 218.720   1
 -10   0  -8 4948.13 265.499   2
 -10   0  -9-22.0173 15.3843   2
  10   0   9-17.6656 26.9398   3
 -10   0  -9 10.3862 20.6734   1
 -10   0 -10 7827.14 356.426   2
  10   0  10 7925.52 345.710   3
  10   0  11 41.3495 38.4180   3
  10   0  12 1936.87 185.345   3
  10   0  13-51.2224 37.3135   3
  10   0  14 30.8458 34.1205   3
  10   0  15-17.1559 39.7665   3
  10   0  16 91.7099 43.5995   3
  10   0  17 52.4984 48.2732   3
  10   0  18 24.7306 39.1035   3
  10   0  19-0.54074 37.0445   3
  10   0  20 60.0037 57.9346   3
  10   0  21-15.6186 51.5035   3
  10   0  22 430.412 124.168   3
  10   0  23 7.12034 43.9653   3
  10   0  24 66.1750 67.9601   3
  10  -1 -25 21.9727 46.8977   2
  10  -1 -24 81.4647 55.7804   2
  10   1 -24-94.3901 63.2573   2
  10  -1 -23-35.3094 29.1475   2
  10   1 -23-183.194 81.7475   2
  10  -1 -22-20.3453 31.8075   2
  10   1 -22 30.3504 40.0776   2
  10  -1 -21 64.6560 51.0222   2
  10   1 -21 42.6027 58.1465   2
  10  -1 -20 30.8246 30.4651   2
  10   1 -20-72.8209 59.3434   2
  10  -1 -19 75.6410 60.0274   2
  10   1 -19 348.502 101.518   2
  10  -1 -18 131.079 63.3368   2
  10   1 -18 140.728 63.8782   2
  10  -1 -17 68.7521 57.9674   2
  10   1 -17 80.1065 46.4660   2
  10  -1 -16 21.1215 31.2649   2
  10   1 -16-29.9080 52.5031   2
  10  -1 -15 307.870 77.2678   2
  10   1 -15 329.240 86.3345   2
  10  -1 -14 12.1976 29.1487   2
  10   1 -14 9.43179 33.8960   2
  10  -1 -13 277.801 68.6836   2
  10   1 -13 110.632 57.6820   2
  10   1 -12 671.673 115.483   3
  10  -1 -12 680.974 106.254   2
  10   1 -12 581.706 104.327   2
  10   1 -11 96.8253 42.3479   3
  10  -1 -11 90.0729 48.5845   3
  10  -1 -11 102.362 41.4069   2
  10   1 -11 79.6434 51.6507   2
  10   1 -10 22.3572 32.1385   3
  10  -1 -10-7.78064 33.5653   3
  10  -1 -10 38.5697 30.1134   2
  10   1 -10 0.15388 28.6631   2
  10   1  -9 484.825 91.3511   3
  10  -1  -9 557.837 115.206   3
  10  -1  -9 664.311 95.2966   2
  10   1  -9 565.998 91.6684   2
 -10  -1   8 2595.89 198.025   2
  10  -1  -8 2616.21 177.626   2
  10   1  -8 2477.88 188.015   2
  10   1  -8 2860.14 214.488   3
 -10   1   7 3278.81 192.180   2
 -10  -1   7 3513.91 226.205   2
  10   1  -7 3492.07 213.258   2
  10  -1  -7 3391.63 194.622   2
  10   1  -7 3725.91 240.979   3
  10   1  -6 2343.20 187.093   3
 -10   1   6 1985.93 146.333   2
 -10  -1   6 2091.33 172.199   2
  10   1  -6 2099.73 163.340   2
  10  -1  -6 1912.46 141.701   2
  10  -1  -5 92.2012 30.7563   2
 -10  -1   5-22.4743 29.7119   2
 -10   1   5 31.0437 29.0707   2
  10   1  -5 59.5506 33.0096   2
 -10   1   4 907.620 97.9930   2
 -10  -1   4 772.185 101.455   2
  10   1  -4 854.562 102.984   2
  10  -1  -4 875.858 91.9272   2
 -10   1   3 1068.36 100.715   2
 -10  -1   3 987.447 111.951   2
  10   1  -3 784.321 96.3037   2
  10  -1  -3 956.190 94.2017   2
  10   1  -2 227.531 55.5291   2
  10  -1  -2 176.645 38.5797   2
 -10   1   2 214.113 47.1031   2
 -10  -1   2 202.177 51.3263   2
  10  -1  -1 2723.11 96.9921   1
  10  -1  -1 2501.54 145.389   2
 -10   1   1 2509.48 152.629   2
 -10  -1   1 2446.66 171.104   2
  10   1  -1 2392.04 162.392   2
 -10   1   0 1432.79 117.235   2
  10   1   0 1449.87 127.798   2
  10   1   0 1436.13 93.7391   1
  10  -1   0 1455.05 113.262   2
 -10  -1   0 1480.27 136.447   2
  10  -1   0 1518.00 76.7947   1
  10   1   1 171.450 48.1616   2
  10  -1   1 129.521 36.5714   2
 -10  -1  -1 178.633 49.7772   2
  10   1   1 150.905 33.6652   1
 -10   1  -1 147.096 40.7289   2
  10  -1   2 256.077 48.0646   2
 -10  -1  -2 331.657 71.6909   2
 -10   1  -2 260.144 52.3372   2
  10   1   2 279.540 47.6959   1
  10   1   2 268.769 55.5580   2
 -10   1  -3 2414.15 161.893   2
  10   1   3 2468.34 163.848   2
  10   1   3 2277.68 134.327   1
  10  -1   3 2303.19 145.016   2
 -10  -1  -3 2364.22 179.314   2
  10   1   4 326.525 63.5331   2
 -10  -1  -4 240.839 64.6120   2
 -10  -1  -4 296.873 49.2838   1
 -10   1  -4 269.020 56.2497   2
 -10   1  -4 294.404 40.1397   1
 -10  -1  -5 14076.5 335.162   1
 -10  -1  -5 14001.3 444.623   2
 -10   1  -5 14783.7 421.071   2
  10   1   5 13442.3 361.242   3
 -10   1  -5 13419.9 290.472   1
  10   1   5 13676.4 399.683   2
 -10  -1  -6 10922.4 394.502   2
 -10   1  -6 11612.8 379.783   2
  10   1   6 10476.5 335.597   3
  10   1   6 10465.5 354.608   2
 -10   1  -6 10773.1 282.598   1
 -10  -1  -6 10783.7 305.408   1
 -10  -1  -7 5174.77 277.236   2
 -10   1  -7 4589.20 198.868   1
 -10   1  -7 5247.38 260.734   2
  10  -1   7 4851.90 258.888   3
  10   1   7 5020.92 238.221   3
 -10  -1  -7 4916.87 217.539   1
 -10  -1  -8 802.363 113.138   2
 -10   1  -8 769.300 105.999   2
  10  -1   8 779.726 110.759   3
 -10  -1  -8 721.795 87.8906   1
 -10  -1  -9 2525.86 204.248   2
  10  -1   9 2372.03 195.742   3
 -10   1  -9 2724.19 199.143   2
 -10  -1  -9 2515.00 170.802   1
 -10  -1 -10 1003.14 130.667   2
  10  -1  10 1020.32 132.547   3
 -10   1 -10 1062.01 129.879   2
 -10  -1 -10 1127.13 119.658   1
 -10  -1 -11 176.287 55.1876   1
 -10   1 -11 91.6281 41.8727   2
  10  -1  11 9.16131 29.7004   3
  10   1  11 68.0233 41.7927   3
  10  -1  12 42.8759 35.5392   3
  10   1  12 57.4102 22.4864   3
 -10  -1 -12 48.0499 34.1687   1
  10  -1  13 35.8252 32.8380   3
  10   1  13-13.6441 29.2269   3
  10  -1  14 136.775 56.7637   3
  10   1  14 125.538 55.6152   3
  10  -1  15 330.000 86.5233   3
  10   1  15 262.969 78.2627   3
  10  -1  16-1.85708 38.4271   3
  10   1  16 23.6969 39.1857   3
  10  -1  17 56.9054 53.5536   3
  10   1  17-63.5558 60.2641   3
  10  -1  18 152.628 67.4061   3
  10   1  18 36.2696 42.9594   3
  10  -1  19 112.181 64.2857   3
  10   1  19 99.8672 52.2652   3
  10  -1  20-49.9041 62.0865   3
  10   1  20-54.9552 30.3801   3
  10   1  21 104.345 56.1491   3
  10  -1  21 82.2449 52.0102   3
  10   1  22-160.956 77.7145   3
  10  -1  22 13.0263 45.5239   3
  10   1  23-29.8673 50.8182   3
  10  -1  23-116.585 76.0988   3
  10   1  24 19.7163 43.2516   3
  10  -2 -26 149.178 83.7645   2
  10  -2 -25 27.0709 37.3064   2
  10  -2 -24 43.4972 42.9116   2
  10   2 -24 71.7868 71.2382   2
  10  -2 -23 0.99656 39.3404   2
  10   2 -23 128.362 74.0451   2
  10  -2 -22 31.2709 28.1841   2
  10   2 -22 4.06852 42.4600   2
  10  -2 -21 25.9796 27.1121   2
  10   2 -21 52.5354 46.6829   2
  10  -2 -20-40.5887 40.9867   2
  10   2 -20 82.3413 60.3258   2
  10  -2 -19-40.9091 30.7961   2
  10   2 -19-28.1771 37.9829   2
  10  -2 -18 23.0199 43.4953   2
  10   2 -18-27.8003 42.2204   2
  10  -2 -17 999.040 142.403   2
  10   2 -17 1056.45 168.450   2
  10  -2 -16 1.66359 31.5707   2
  10   2 -16-91.9875 68.8092   2
  10  -2 -15-33.9305 33.3078   2
  10   2 -15-91.4040 56.1533   2
  10  -2 -14 3562.42 245.835   2
  10   2 -14 3409.72 273.212   2
  10  -2 -13 256.625 67.4181   2
  10   2 -13 245.581 79.4867   2
  10   2 -13 245.028 74.5647   3
  10  -2 -12 858.340 111.655   2
  10   2 -12 842.186 129.592   2
  10   2 -12 1079.28 143.847   3
  10  -2 -11 1108.86 159.551   3
  10   2 -11 911.344 137.334   2
  10  -2 -11 1049.93 119.921   2
  10   2 -11 1034.36 138.483   3
  10  -2 -10 4748.53 331.468   3
  10  -2 -10 4891.21 247.081   2
  10   2 -10 4677.42 285.802   2
  10   2 -10 4851.87 283.222   3
 -10  -2   9 985.910 130.373   2
  10  -2  -9 774.376 96.2419   2
  10   2  -9 754.942 108.512   3
  10   2  -9 803.599 116.678   2
  10   2  -8 365.636 72.7585   3
 -10  -2   8 341.481 76.1429   2
  10  -2  -8 326.245 57.9308   2
  10   2  -8 311.125 74.0520   2
  10   2  -7 0.52982 19.7652   3
 -10  -2   7-50.6748 41.3962   2
  10   2  -7-18.5446 31.9623   2
  10  -2  -7 25.8389 25.8581   2
 -10   2   6 4384.78 202.238   2
 -10  -2   6 4579.05 268.655   2
  10   2  -6 4314.27 248.225   2
  10  -2  -6 4698.04 205.719   2
  10   2  -6 4871.48 249.477   3
  10  -2  -5 85.0458 27.9401   2
  10   2  -5 159.301 46.1466   3
 -10  -2   5 33.2700 22.0291   2
 -10   2   5 86.0115 30.1746   2
  10   2  -5 71.6198 35.8225   2
  10   2  -4 4480.24 228.295   3
 -10   2   4 4328.44 195.137   2
 -10  -2   4 4629.78 258.620   2
  10  -2  -4 4121.80 183.544   2
  10  -2  -3 18.8923 16.4879   2
 -10   2   3-22.5893 23.1879   2
 -10  -2   3 10.3876 18.1525   2
  10  -2  -2 1052.86 87.5370   2
 -10   2   2 1012.46 90.7187   2
 -10  -2   2 1098.75 123.656   2
  10  -2  -1-14.7740 10.2835   1
  10  -2  -1 13.2406 13.6325   2
 -10  -2   1-29.5277 28.6762   2
 -10   2   1-2.95246 13.6993   2
  10   2   0 17252.1 359.334   1
  10  -2   0 16642.6 346.169   2
 -10  -2   0 16622.8 486.222   2
 -10   2   0 16251.7 372.750   2
  10  -2   1 22927.5 409.459   2
 -10  -2  -1 24069.0 578.371   2
  10   2   1 22883.9 418.848   1
 -10   2  -1 21911.6 449.232   2
  10   2   2 5854.74 219.458   1
 -10  -2  -2 5706.22 286.670   2
  10  -2   2 5790.98 210.810   2
 -10   2  -2 5738.16 230.437   2
 -10   2  -3 36738.2 602.039   2
 -10  -2  -3 39064.9 754.582   2
  10   2   3 36757.4 572.722   1
  10   2   4 5717.84 203.917   3
 -10   2  -4 5776.65 245.525   2
 -10   2  -4 5587.08 157.025   1
 -10  -2  -4 5965.60 296.532   2
 -10  -2  -5 2278.51 185.968   2
 -10   2  -5 2352.42 160.606   2
  10   2   5 2058.17 130.737   3
 -10  -2  -5 2577.63 155.817   1
 -10   2  -5 2235.71 110.526   1
 -10   2  -6 224.349 53.1943   2
 -10  -2  -6 223.777 47.3493   1
 -10  -2  -6 259.872 62.4986   2
  10   2   6 213.227 47.4294   3
 -10   2  -6 215.940 41.6059   1
 -10   2  -7 23.5036 22.7691   2
  10  -2   7 31.5540 32.8532   3
 -10  -2  -7 46.1312 26.2166   1
  10   2   7 2.01861 22.5227   3
 -10  -2  -7 5.21764 17.6698   2
 -10  -2  -8 429.979 68.9187   1
 -10   2  -8 489.495 81.7758   2
  10  -2   8 293.881 76.6939   3
 -10  -2  -8 411.401 85.1886   2
  10   2   8 334.978 60.0679   3
 -10   2  -9 89.7926 33.1989   2
  10  -2   9 22.7410 40.8473   3
 -10  -2  -9 57.6849 32.3199   2
 -10  -2  -9 125.600 45.3413   1
 -10   2 -10 26.6016 19.3779   2
  10  -2  10 8.89557 39.0730   3
 -10  -2 -10 77.5111 34.1443   1
 -10   2 -11 318.767 71.6325   2
  10  -2  11 267.861 76.1758   3
  10  -2  12 266.213 76.1529   3
  10   2  12 301.331 67.2844   3
  10  -2  13 330.860 89.8694   3
  10   2  13 348.422 78.6254   3
  10  -2  14 150.259 57.0266   3
  10   2  14 214.418 66.0176   3
  10  -2  15 249.638 85.6444   3
  10   2  15 248.858 74.1536   3
  10  -2  16-39.2529 49.6284   3
  10   2  16 75.9966 48.9133   3
  10  -2  17 43.6888 44.5800   3
  10   2  17 6.04544 24.9806   3
  10   2  18 281.104 93.4482   3
  10  -2  18 454.288 112.847   3
  10   2  19-18.2951 42.9695   3
  10  -2  19-85.2388 63.6090   3
  10   2  20 408.918 109.732   3
  10  -2  20 488.851 128.724   3
  10   2  21 96.0482 60.7771   3
  10  -2  21-101.769 75.5909   3
  10   2  22 208.110 85.6254   3
  10  -2  22 73.3344 71.5204   3
  10   2  23 63.1094 67.9964   3
  10   2  24 158.288 96.4576   3
  10   2  25 14.5009 36.4721   3
  10  -3 -26 125.060 74.1772   2
  10  -3 -25 8.59900 51.9870   2
  10  -3 -24 82.5915 63.5674   2
  10  -3 -23-28.7092 33.4675   2
  10   3 -23-172.134 84.5323   2
  10  -3 -22 92.8438 59.2629   2
  10   3 -22 275.823 106.460   2
  10  -3 -21-4.19874 30.4253   2
  10   3 -21-174.395 83.0866   2
  10  -3 -20 141.933 60.8791   2
  10   3 -20 209.159 82.4079   2
  10  -3 -19 38.9173 39.5385   2
  10   3 -19 11.3342 41.9276   2
  10  -3 -18-2.32775 33.6879   2
  10   3 -18-57.6675 65.5456   2
  10   3 -17 158.894 73.0856   2
  10  -3 -17 150.120 59.3885   2
  10  -3 -16 40.9044 34.8326   2
  10   3 -16 107.961 66.1239   2
  10  -3 -15 55.4842 32.6734   2
  10   3 -15 36.0653 50.7006   2
  10   3 -14 112.626 61.5074   2
  10  -3 -14 187.278 56.9308   2
  10  -3 -13 2401.95 189.017   2
  10   3 -13 2222.93 233.390   2
  10   3 -13 2425.50 217.663   3
  10  -3 -12 774.868 109.157   2
  10   3 -12 718.930 114.748   3
  10   3 -12 793.014 129.363   2
  10  -3 -11-11.9155 22.6178   2
  10   3 -11-23.7973 42.8646   2
  10   3 -11 32.9728 33.8000   3
  10  -3 -10 1256.66 118.359   2
  10   3 -10 1201.42 151.993   2
  10   3 -10 1278.89 142.806   3
 -10  -3   9 295.596 75.4931   2
  10  -3  -9 325.550 60.0237   2
  10   3  -9 285.457 71.7521   2
  10   3  -9 291.867 65.1370   3
 -10  -3   8 1.77378 27.1462   2
  10  -3  -8 17.6401 18.3644   2
  10   3  -8-31.4211 45.3874   2
  10   3  -8 43.7193 27.5534   3
  10   3  -7 188.231 49.4461   3
 -10  -3   7 316.827 80.8082   2
  10   3  -7 191.007 61.8241   2
  10  -3  -7 242.490 43.6265   2
  10   3  -6 120.257 39.4103   3
  10  -3  -6 128.365 33.6162   2
 -10  -3   6 83.3887 33.6337   2
  10   3  -6 88.3420 44.1631   2
 -10   3   5 10791.1 275.292   2
 -10  -3   5 11389.1 433.083   2
  10  -3  -5 10758.8 270.755   2
  10   3  -5 10919.8 330.484   3
 -10   3   4 1703.11 107.462   2
 -10  -3   4 1689.08 165.248   2
  10   3  -4 1717.98 124.984   3
  10  -3  -4 1712.22 103.475   2
  10  -3  -3 5796.99 181.562   2
 -10   3   3 5830.08 198.672   2
 -10  -3   3 6372.95 314.472   2
  10   3  -3 5766.37 218.509   3
  10   3  -2 9.49702 14.4323   3
 -10   3   2 39.6377 22.5560   2
 -10  -3   2 41.4259 38.4432   2
  10  -3  -2 12.9561 11.3076   2
  10   3  -1 4760.59 184.902   3
 -10  -3   1 4940.37 272.904   2
 -10   3   1 4694.11 179.946   2
  10  -3  -1 4781.20 163.883   2
  10   3   0 933.343 91.6695   1
 -10  -3   0 798.888 111.187   2
 -10   3   0 741.625 73.9761   2
  10  -3   0 776.226 67.6005   2
 -10  -3  -1 553.778 93.1536   2
  10   3   1 503.721 66.8938   1
 -10   3  -1 608.984 69.0540   2
 -10   3  -2 2963.10 157.554   2
 -10  -3  -2 3112.04 222.303   2
  10   3   2 3004.25 169.481   1
  10   3   3 923.199 67.5834   3
 -10   3  -3 802.746 83.4652   2
  10   3   3 929.588 98.6248   1
 -10  -3  -3 988.835 127.308   2
 -10   3  -4 2673.04 161.946   2
  10   3   4 2704.41 173.144   1
  10   3   4 2863.51 124.229   3
 -10   3  -4 3006.54 101.413   1
 -10  -3  -4 2926.29 217.411   2
  10   3   5 21.5442 27.1943   2
 -10  -3  -5 72.8162 35.9760   2
  10   3   5 61.3137 20.0009   3
 -10   3  -5 37.6663 14.9497   1
 -10   3  -5 42.8613 28.0522   2
 -10  -3  -6 1366.25 123.652   1
 -10   3  -6 1098.31 110.977   2
  10   3   6 1111.55 87.0084   3
  10   3   6 911.365 113.399   2
 -10  -3  -6 1401.13 153.748   2
 -10   3  -7 146.256 44.9612   2
  10   3   7 153.742 54.5881   2
 -10  -3  -7 136.520 48.5691   2
 -10  -3  -7 168.501 49.4010   1
  10  -3   7 115.711 45.8905   3
  10   3   7 157.766 38.5152   3
 -10   3  -8 7.00513 19.0994   2
 -10  -3  -8-12.4543 24.4189   2
  10  -3   8-21.0881 39.6358   3
 -10  -3  -8-9.12500 18.9072   1
  10   3   8 33.7842 24.4949   3
 -10   3  -9 21.9874 27.3869   2
 -10  -3  -9-9.00130 30.0764   1
  10  -3   9 21.8836 34.4342   3
  10   3   9 36.8816 27.8268   3
  10  -3  10 1018.22 144.373   3
  10   3  10 814.507 96.2521   3
 -10   3 -10 973.297 123.681   2
 -10   3 -11 234.735 62.9785   2
  10  -3  11 206.898 72.1082   3
  10  -3  12 266.532 83.2512   3
  10  -3  13 1570.97 193.655   3
  10   3  13 1531.30 155.562   3
  10   3  14 383.492 90.1774   3
  10  -3  14 351.729 89.8525   3
  10   3  15 37.1442 21.3527   3
  10  -3  15-6.59079 39.8556   3
  10   3  16 73.0609 45.5973   3
  10  -3  16-64.3296 65.8376   3
  10   3  17 13.2854 43.5974   3
  10  -3  17-85.2970 79.6778   3
  10   3  18 400.333 92.7138   3
  10  -3  18 620.284 139.392   3
  10  -3  19 1711.78 232.736   3
  10   3  19 2211.76 243.047   3
  10   3  20 13.2834 28.0821   3
  10  -3  20-44.5819 58.1536   3
  10   3  21 31.1536 47.3011   3
  10  -3  21-69.8164 68.0961   3
  10   3  22-90.6053 61.2546   3
  10  -3  22-20.8791 84.7419   3
  10   3  23-58.8812 53.1392   3
  10   3  24-42.4330 39.3328   3
  10  -4 -24 15.8766 36.7631   2
  10  -4 -23 7.79266 32.7071   2
  10  -4 -22 51.7701 32.6509   2
  10   4 -22 13.6758 61.7601   2
  10  -4 -21 65.1941 50.3194   2
  10   4 -21 80.6749 57.5420   2
 -10  -4  20-52.6097 55.6921   3
  10  -4 -20 38.4833 39.9049   2
  10   4 -20 74.3282 47.8559   2
 -10  -4  19-42.0151 67.8412   3
  10  -4 -19 35.0694 40.4382   2
  10   4 -19 77.2021 55.2131   2
 -10  -4  18-34.4539 35.9676   3
  10  -4 -18-19.5445 25.7432   2
 -10  -4  17 61.4299 38.5571   3
  10  -4 -17 170.017 55.6744   2
  10   4 -17 146.433 71.6509   2
  10   4 -16 608.152 131.525   2
 -10  -4  16 648.094 135.217   3
  10  -4 -16 452.806 92.5693   2
 -10  -4  15-41.0191 55.6916   3
  10  -4 -15-22.6992 32.4502   2
  10   4 -15 26.8444 51.6609   2
 -10  -4  14 2866.90 272.763   3
  10  -4 -14 2812.50 205.854   2
  10   4 -14 2483.12 251.160   2
  10   4 -13 44.4598 51.6698   2
  10  -4 -13 23.4662 27.2079   2
  10   4 -13 62.2034 41.5566   3
  10  -4 -12 18.3250 35.1858   2
  10   4 -12 34.2892 40.8544   2
  10   4 -12-55.5428 44.6429   3
  10  -4 -11 485.325 78.5915   2
  10   4 -11 536.650 106.644   2
  10   4 -11 632.995 103.437   3
  10  -4 -10 721.379 83.7743   2
  10   4 -10 734.095 118.513   2
  10   4 -10 664.971 102.091   3
  10  -4  -9 95.0854 31.0123   2
  10   4  -9 133.033 57.8250   2
  10   4  -9 90.5320 35.3385   3
 -10  -4   8 244.986 80.2734   2
  10   4  -8 253.922 68.4616   2
  10  -4  -8 234.356 43.8432   2
  10   4  -8 239.596 55.2013   3
 -10  -4   7 1587.11 174.047   2
  10   4  -7 1380.31 155.206   2
  10  -4  -7 1419.48 95.0413   2
  10   4  -7 1548.08 133.435   3
  10  -4  -6 134.876 27.1599   2
 -10  -4   6 284.610 82.1902   2
  10   4  -6 137.231 36.2535   3
  10   4  -6 152.586 52.9831   2
  10   4  -5 81.0620 43.4759   2
  10  -4  -5 75.2768 20.0241   2
 -10  -4   5 160.694 57.0273   2
  10   4  -5 56.0364 23.4467   3
  10   4  -4 293.364 71.0864   2
  10  -4  -4 305.552 34.9082   2
 -10  -4   4 353.630 84.2862   2
  10  -4  -4 257.827 18.9550   1
  10   4  -4 316.908 50.0839   3
  10   4  -3 10.6073 24.5917   2
  10  -4  -3 14.5523 7.70435   2
 -10   4   3 5.61442 9.66027   2
 -10  -4   3-19.0211 34.4711   2
  10   4  -3 12.1351 12.5710   3
 -10   4   2 2774.38 115.767   2
 -10  -4   2 3150.20 232.605   2
  10   4  -2 2754.44 120.857   3
  10   4  -2 2610.02 203.556   2
 -10   4   1 2448.27 112.667   2
 -10  -4   1 2527.58 203.760   2
  10   4  -1 2309.28 98.3716   3
  10   4  -1 2325.75 189.829   2
  10   4   0 412.769 67.6645   1
  10   4   0 479.237 84.8211   2
 -10   4   0 401.931 49.1451   2
  10   4   0 442.089 36.5456   3
 -10  -4   0 500.870 92.1550   2
 -10   4  -1 100.552 26.9230   2
  10   4   1 86.2088 33.7906   2
  10   4   1 127.278 38.0198   1
 -10  -4  -1 78.7289 38.7486   2
 -10  -4  -2 200.802 60.2575   2
  10   4   2 135.979 40.8363   1
 -10   4  -2 169.953 36.6777   2
  10   4   2 144.060 49.1223   2
 -10  -4  -3 241.403 69.2249   2
  10   4   3 184.898 52.1810   1
 -10   4  -3 203.834 40.5814   2
  10   4   3 259.551 64.4968   2
  10   4   4 2.35206 25.8443   2
 -10   4  -4 1.08880 5.44997   1
 -10  -4  -4-12.2999 21.6805   2
  10   4   4 23.1839 27.1936   1
 -10   4  -4 25.7654 17.5655   2
  10   4   4 7.07005 6.24293   3
  10   4   5 49.6212 14.5991   3
 -10   4  -5 52.3534 26.0444   2
  10   4   5 30.6890 30.3396   2
 -10  -4  -5 1.96018 24.1368   2
 -10   4  -6 1314.06 118.095   2
  10   4   6 1169.90 130.738   2
  10   4   6 1240.01 78.9370   3
 -10  -4  -6 1383.49 160.576   2
 -10  -4  -7 444.635 90.5211   2
  10   4   7 528.644 87.1322   2
 -10  -4  -7 662.296 93.5526   1
  10  -4   7 374.527 90.8801   3
 -10   4  -7 540.202 78.0466   2
  10   4   7 524.007 58.3163   3
  10   4   8 633.568 103.396   2
  10  -4   8 682.192 116.958   3
 -10   4  -8 755.028 98.0023   2
  10   4   8 798.108 77.6328   3
  10   4   9 22.3845 24.3800   3
 -10   4  -9 6.81266 15.3611   2
  10  -4   9-39.4195 41.3622   3
  10   4  10 320.750 62.1577   3
 -10   4 -10 279.270 64.8092   2
  10  -4  10 369.520 93.8793   3
  10   4  11 111.703 39.9194   3
 -10   4 -11 102.579 41.6937   2
  10  -4  11 166.588 64.4051   3
  10  -4  12 14.5311 36.7378   3
  10  -4  13 14.1714 33.6097   3
  10   4  14 6.93489 26.4817   3
  10  -4  14-31.0102 54.7740   3
  10   4  15 418.492 91.6503   3
  10  -4  15 492.536 116.148   3
  10   4  16-60.1628 43.4333   3
  10  -4  16-96.6673 62.9787   3
  10   4  17 122.686 47.8793   3
  10  -4  17 76.8698 65.3199   3
  10   4  18-2.60132 39.8087   3
  10  -4  18 36.6440 53.8332   3
  10   4  19 12.7974 26.2493   3
  10  -4  19-84.2694 80.5578   3
  10   4  20 155.904 69.7073   3
  10  -4  20 159.987 77.4207   3
  10   4  21 167.460 76.2468   3
  10  -4  21 83.7863 56.4576   3
  10   4  22-22.1670 71.2508   3
 -10  -5  22 29.8497 52.2772   3
 -10  -5  21 189.759 91.2924   3
  10  -5 -21 195.819 65.4408   2
  10   5 -21 56.7920 50.3240   2
 -10  -5  20-10.9216 37.8183   3
  10  -5 -20 35.2728 28.3163   2
  10   5 -20 96.9624 60.6152   2
 -10  -5  19 131.693 68.6847   3
  10  -5 -19 8.70479 24.0433   2
  10   5 -19 144.480 82.6969   2
 -10  -5  18 38.4203 44.8533   3
  10   5 -18 82.9189 63.4479   2
  10  -5 -18 21.2411 28.6164   2
 -10  -5  17 153.888 71.3173   3
  10  -5 -17 119.003 44.1576   2
  10   5 -17 95.6700 58.1850   2
 -10  -5  16 57.3219 62.1143   3
  10  -5 -16 35.1599 24.1661   2
  10   5 -16-67.2430 59.9588   2
 -10  -5  15 479.657 123.345   3
  10  -5 -15 627.797 98.7695   2
  10   5 -15 399.425 108.863   2
 -10  -5  14 946.838 156.908   3
  10  -5 -14 1061.70 121.839   2
  10   5 -14 1089.70 173.932   2
 -10  -5  13 98.8977 60.0521   3
  10  -5 -13 19.2579 26.2566   2
  10   5 -13 58.6834 46.9584   2
 -10  -5  12 1112.62 162.430   3
  10  -5 -12 1276.70 120.598   2
  10   5 -12 1246.07 152.671   3
  10   5 -12 1254.63 172.599   2
 -10  -5  11 36.3468 46.5258   3
  10  -5 -11-8.27538 17.5207   2
  10   5 -11-14.1812 38.5523   2
  10   5 -11-2.51265 20.6719   3
  10   5 -10 49.4726 43.2375   2
  10  -5 -10-7.63407 17.5257   2
  10   5 -10 78.4338 41.6360   3
  10  -5  -9 597.204 59.5117   2
  10   5  -9 511.938 85.1796   3
  10   5  -9 625.606 113.270   2
  10  -5  -8 364.969 42.0288   2
  10   5  -8 493.973 81.7552   3
  10   5  -8 314.526 84.6100   2
  10   5  -7 113.846 36.3197   3
  10   5  -7 124.527 53.3637   2
  10  -5  -7 165.474 29.7084   1
  10  -5  -6 44.1419 13.8624   1
  10   5  -6 34.5625 19.7769   3
  10   5  -6 58.8333 49.6010   2
  10   5  -5 48.0605 42.1941   2
 -10  -5   5 0.39847 25.3052   2
  10  -5  -5 3.15871 5.57871   1
  10   5  -5-2.53056 13.2742   3
  10   5  -4 9.02764 27.9719   2
 -10  -5   4 35.8190 22.1371   2
  10   5  -4 35.7875 18.3466   3
  10   5  -3 61.0322 37.5264   2
 -10  -5   3 81.6478 43.5540   2
  10   5  -3 35.9705 15.2732   3
 -10  -5   2 2939.80 238.082   2
  10   5  -2 2807.61 100.597   3
  10   5  -2 2586.89 209.175   2
  10   5  -1-29.5896 34.6687   1
  10   5  -1 23.2040 47.2571   2
 -10   5   1 4.63830 5.62632   2
 -10  -5   1 34.7285 36.1037   2
  10   5   0 77.9180 50.5197   2
  10   5   0 19.4845 26.6619   1
 -10  -5   0 54.2268 30.8366   2
 -10   5   0 10.4925 7.84216   2
  10   5   1 53.0876 34.7949   1
 -10   5  -1 42.3773 13.7726   2
  10   5   1 54.5274 41.6827   2
 -10  -5  -1 131.653 51.1158   2
 -10   5  -2 434.554 51.6793   2
  10   5   2 588.774 88.9930   1
  10   5   2 449.771 83.6125   2
 -10  -5  -2 502.466 97.5004   2
 -10   5  -3 1047.64 88.0973   2
  10   5   3 913.175 120.543   2
 -10  -5  -3 1011.13 137.480   2
  10   5   3 1130.43 120.573   1
 -10   5  -4 998.960 92.0160   2
  10   5   4 1016.98 126.997   2
  10   5   4 896.296 114.707   1
 -10  -5  -4 837.885 129.003   2
 -10   5  -5 5701.82 230.377   2
  10   5   5 6036.35 306.191   2
  10   5   5 5672.98 291.849   1
 -10   5  -6 2.60246 13.0742   2
  10   5   6-19.1795 22.5561   2
 -10   5  -7 81.4926 28.6635   2
  10   5   7 63.1446 36.1753   2
  10  -5   7 82.8110 45.9341   3
 -10   5  -8 5.68410 13.0466   2
  10   5   8-19.8192 28.9443   2
  10  -5   8 53.7436 45.9820   3
 -10   5  -9 21.4942 22.8615   2
  10  -5   9-43.8819 43.9949   3
  10   5  10 1.87782 15.6943   3
 -10   5 -10 12.5628 21.4479   2
  10   5  11 3032.97 180.095   3
  10  -5  11 2851.49 262.892   3
  10   5  12-21.0578 24.0630   3
  10  -5  12 60.6350 50.2352   3
  10  -5  13-16.4492 42.5945   3
  10  -5  14 85.6025 64.0201   3
  10   5  15 60.2038 35.3354   3
  10  -5  15 94.1964 70.1725   3
  10   5  16 1235.78 157.532   3
  10  -5  16 1265.66 198.895   3
  10   5  17 8.92028 30.6424   3
  10  -5  17 43.1035 52.7758   3
  10   5  18 7.37884 25.6904   3
  10  -5  18 113.896 86.0123   3
  10   5  19-18.7013 55.8271   3
  10  -5  19-72.0622 52.9025   3
  10  -5  20 130.184 74.4531   3
 -10  -6  22 30.7431 41.8500   3
 -10  -6  21 37.5155 84.9781   3
 -10  -6  20 63.2569 48.7195   3
  10   6 -20 15.4044 45.3172   2
 -10  -6  19 192.937 90.8739   3
  10   6 -19 73.6613 56.6405   2
 -10  -6  18-50.1184 53.5160   3
  10   6 -18-26.8875 35.7008   2
 -10  -6  17-7.22697 58.5158   3
  10   6 -17 66.5197 48.3880   2
 -10  -6  16 196.607 77.5197   3
  10  -6 -16 168.642 53.9042   2
  10   6 -16 119.510 49.2863   2
 -10  -6  15 28.9060 44.4679   3
  10  -6 -15-29.3741 28.0459   2
  10   6 -15 54.0147 58.2376   2
 -10  -6  14-50.1443 53.7430   3
  10  -6 -14 46.0626 24.7407   2
  10   6 -14-24.5581 33.4734   2
 -10  -6  13 626.703 121.685   3
  10  -6 -13 483.077 67.5815   2
  10   6 -13 666.920 135.250   2
 -10  -6  12 241.104 72.0098   3
  10  -6 -12 289.291 49.2158   2
  10   6 -12 134.791 52.4532   3
 -10  -6  11 787.443 127.660   3
  10   6 -11 1022.08 159.817   2
  10  -6 -11 1048.80 79.2188   2
  10   6 -11 794.360 117.341   3
 -10  -6  10 1005.63 141.744   3
  10  -6 -10 740.708 78.5390   1
  10   6 -10 819.482 118.497   3
  10   6 -10 965.479 150.377   2
  10  -6 -10 824.311 58.3797   2
 -10  -6   9 367.891 80.0470   3
  10  -6  -9 246.351 43.4574   1
  10   6  -9 216.385 67.8114   2
  10   6  -9 217.962 55.2536   3
  10   6  -8 39.0734 28.5950   3
  10   6  -8 88.4299 57.9512   2
  10  -6  -8-9.13555 16.4033   1
  10   6  -7 588.348 82.4007   3
  10  -6  -7 672.958 54.1666   1
  10   6  -7 556.861 104.120   2
  10   6  -6 927.988 138.233   2
  10   6  -6 844.356 91.2890   3
  10   6  -5 1294.79 99.5090   3
  10   6  -5 1328.27 161.128   2
  10   6  -4 45.5634 28.1266   2
  10   6  -4 75.2473 20.5868   3
  10   6  -3 173.340 56.9082   2
  10   6  -2-1.07667 27.3650   2
  10   6  -1 2500.13 182.374   1
  10   6  -1 2162.77 198.152   2
  10   6   0 150.560 49.5576   1
  10   6   0 218.053 62.2482   2
  10   6   1 371.415 72.5902   1
  10   6   1 322.833 84.3818   2
 -10   6  -1 400.218 35.4025   2
  10   6   2 1271.40 146.663   2
  10   6   2 1263.65 134.160   1
 -10   6  -2 1239.67 77.9501   2
 -10   6  -3 1035.58 79.6248   2
  10   6   3 1007.58 132.995   2
  10   6   3 1130.04 129.102   1
  10   6   4 420.706 81.0577   1
 -10   6  -4 420.663 55.8648   2
  10   6   4 394.757 83.7395   2
  10   6   5 542.507 95.8206   2
 -10   6  -5 621.473 76.8572   2
  10   6   5 609.375 101.808   1
 -10   6  -6 79.0690 30.8799   2
  10   6   6 113.003 49.1802   2
 -10   6  -7 44.4963 27.1605   2
  10   6   7 18.2210 31.0801   2
  10  -6   7 35.4045 43.5082   3
 -10   6  -8 14.7908 12.5709   2
  10   6   8 32.1494 27.2862   2
  10  -6   8-35.8736 33.6925   3
 -10   6  -9-4.17152 25.1931   2
  10  -6   9 32.1114 30.2103   3
  10  -6  10 708.704 138.281   3
 -10   6 -10 489.845 85.0520   2
  10  -6  11 4.28156 36.0821   3
  10  -6  12 119.675 72.7389   3
  10  -6  13-18.4802 38.2739   3
  10  -6  14 50.3603 56.7155   3
  10  -6  15 133.634 66.3890   3
  10  -6  16 63.6271 53.2846   3
  10  -6  17-17.4971 33.8369   3
  10  -6  18 74.4268 62.2861   3
 -10  -7  21-16.2512 39.5112   3
 -10  -7  20 117.536 85.4135   3
 -10  -7  19-110.334 71.5731   3
  10   7 -19-160.246 81.5397   2
 -10  -7  18 230.680 88.9424   3
  10   7 -18 284.124 100.555   2
 -10  -7  17-35.5230 31.0303   3
  10   7 -17 16.6538 46.3459   2
 -10  -7  16-96.2245 61.0686   3
  10   7 -16 136.470 82.5175   2
 -10  -7  15 34.7299 49.3229   3
  10   7 -15 20.5048 49.9611   2
 -10  -7  14 112.348 63.3723   3
  10   7 -14 45.3181 62.1778   2
 -10  -7  13 70.6264 38.0268   3
  10  -7 -13 1.44253 17.0594   1
  10   7 -13 45.9296 38.7186   2
 -10  -7  12 333.609 91.8861   3
  10  -7 -12 301.932 55.8857   1
  10   7 -12 172.982 72.6843   3
  10   7 -12 321.617 100.237   2
 -10  -7  11 4.02257 37.8838   3
  10   7 -11-39.7618 32.1330   3
 -10  -7  10-19.6601 34.3235   3
  10   7 -10 7.60561 22.0918   3
  10   7 -10-19.2674 37.0666   2
  10  -7  -9 196.194 36.3733   1
 -10  -7   9 106.400 44.6621   3
  10   7  -9 162.014 46.6716   3
  10   7  -9 89.0250 38.3592   2
  10   7  -8 57.5042 31.2162   3
  10   7  -8 19.9724 38.3917   2
  10   7  -7 68.7784 45.3452   2
  10   7  -7 101.944 38.2906   3
  10   7  -6 7.97347 32.7704   2
  10   7  -5 310.760 83.0879   2
  10   7  -4 3.24910 30.8166   2
  10   7  -3 81.8641 42.6016   2
  10   7  -2 433.185 97.5031   2
  10   7  -2 377.256 78.7339   1
  10   7  -1 1739.20 187.150   2
  10   7  -1 1873.56 167.660   1
  10   7   0 3952.00 276.166   2
  10   7   0 4252.94 248.317   1
  10   7   1 31.4939 42.6949   1
  10   7   1 54.9406 42.1724   2
 -10   7  -2 728.995 45.4408   2
 -10   7  -2 816.635 45.3533   2
  10   7   2 909.877 129.968   2
  10   7   2 874.223 117.902   1
 -10   7  -3 10.8127 11.7825   2
 -10   7  -3 5.22026 7.12136   2
  10   7   3 2.90758 27.5501   1
  10   7   3-8.61110 33.0725   2
 -10   7  -4 1831.69 109.997   2
  10   7   4 1785.97 178.992   2
  10   7   4 1728.24 173.990   1
 -10   7  -4 1573.66 57.0960   1
  10   7   5 557.820 101.105   2
 -10   7  -5 430.205 35.6999   1
 -10   7  -5 474.098 61.7626   2
  10   7   5 461.033 94.5265   1
  10  -7   6 2370.23 236.535   3
 -10   7  -6 2376.02 147.939   2
  10   7   6 2271.55 203.369   2
 -10   7  -7 91.7963 32.5914   2
  10   7   7 92.2878 47.5053   2
  10  -7   7 35.5224 32.3597   3
  10  -7   8 77.5784 55.6649   3
 -10   7  -8 116.327 39.9744   2
  10   7   8 135.766 51.0384   2
 -10   7  -9 52.8274 22.6036   2
  10  -7   9 140.171 76.2547   3
  10  -7  10-13.9057 45.3742   3
  10  -7  11-56.7574 55.5230   3
  10  -7  12 277.535 80.5886   3
  10  -7  13 75.4518 50.9585   3
  10  -7  14 60.3747 48.5363   3
  10  -7  15 430.786 125.602   3
  10  -7  16 182.274 80.3429   3
  10  -7  17 139.877 69.3261   3
 -10  -8  20-67.7065 60.8157   3
 -10  -8  19 191.457 106.675   3
 -10  -8  18-11.1949 47.9162   3
 -10  -8  17 148.606 70.4723   3
  10   8 -17 212.754 80.0698   2
 -10  -8  16 108.866 72.3488   3
  10   8 -16 102.265 56.4584   2
 -10  -8  15 94.6515 56.0690   3
  10   8 -15 72.3580 63.2214   2
 -10  -8  14 4.98961 37.5750   3
  10   8 -14 43.7345 37.3718   2
 -10  -8  13 27.4093 38.6029   3
  10   8 -13 41.3554 32.1725   2
 -10  -8  12-11.1574 23.8514   3
  10   8 -12-64.6059 61.8732   2
 -10  -8  11 179.218 63.8359   3
  10   8 -11 181.937 71.4219   2
 -10  -8  10 586.554 107.563   3
  10   8 -10 617.160 129.649   2
 -10  -8   9 155.461 57.9703   3
  10   8  -9 48.4798 31.4031   2
  10   8  -8 272.759 83.7093   2
 -10  -8   8 299.370 66.9842   3
  10   8  -7-37.5098 40.3456   2
  10   8  -6 523.480 114.593   2
  10   8  -5 59.6638 40.4153   2
  10   8  -4 36.6775 34.1014   2
  10   8  -3 43.9979 33.8928   2
  10   8  -3-3.26340 36.8507   1
  10   8  -2 48.5834 40.4511   1
  10   8  -2-41.6100 36.1306   2
  10   8  -1-10.5233 33.8415   1
  10   8  -1-6.15901 37.1524   2
  10   8   0 1169.23 152.599   2
  10   8   0 1504.54 158.440   1
  10   8   1 608.471 100.935   1
  10   8   1 526.555 103.043   2
  10   8   2 161.161 54.8302   1
  10   8   2 178.926 66.0080   2
  10   8   3 20.5161 30.0367   1
  10   8   3 11.2519 25.4118   2
  10   8   4 33.6304 25.5709   2
  10   8   4 56.0987 37.8375   1
 -10   8  -4 27.6534 14.5088   2
 -10   8  -4 36.2873 13.6351   2
 -10   8  -4 18.9386 9.65643   1
 -10   8  -5 35.4920 10.7663   1
  10   8   5 14.7225 22.1457   2
 -10   8  -5 47.5392 25.0978   2
  10   8   5 24.8953 24.6703   1
  10   8   6 353.495 87.2433   2
 -10   8  -6 343.489 59.6943   2
  10  -8   6 384.748 111.122   3
  10  -8   7 1226.85 185.095   3
  10   8   7 1277.95 160.036   2
  10  -8   8-14.3722 49.1226   3
 -10   8  -8 38.5363 26.7528   2
  10   8   8 24.6360 28.7787   2
  10  -8   9 235.173 93.6753   3
  10  -8  10-88.8187 51.4279   3
  10  -8  11 269.005 90.7649   3
  10  -8  12 134.132 68.1333   3
  10  -8  13 426.235 128.926   3
  10  -8  14-40.2072 62.0032   3
  10  -8  15-19.7744 60.5650   3
  10   9 -16-27.6386 42.4154   2
  10   9 -15 37.7263 60.0105   2
  10   9 -14-69.2320 72.3141   2
  10   9 -13 33.0172 26.7718   2
  10   9 -12 102.783 61.5285   2
  10   9 -11 12.0245 32.0215   2
  10   9 -10 79.8044 64.1414   2
  10   9  -9 15.2926 43.3706   2
  10   9  -8 128.463 63.5193   2
  10   9  -7 12.5366 36.1173   2
  10   9  -6 459.912 108.691   2
  10   9  -5 385.552 105.233   2
  10   9  -4 763.531 121.066   1
  10   9  -4 462.692 111.954   2
  10   9  -3 47.9458 38.2844   1
  10   9  -3 35.4731 44.9686   2
  10   9  -2 79.8014 50.9687   1
  10   9  -2 109.525 63.9871   2
  10   9  -1 41.8322 40.9927   2
  10   9  -1 116.946 58.7369   1
  10   9   0 272.015 65.7787   1
  10   9   0 267.778 81.9558   2
  10   9   1 210.719 68.4898   2
  10   9   1 142.097 50.3898   1
  10   9   2 228.811 79.6557   1
  10   9   2 159.994 62.0016   2
  10   9   3-1.03615 36.6070   1
  10   9   3-122.449 54.4109   2
  10   9   4 229.393 76.4945   1
  10   9   4 116.115 51.3629   2
  10   9   5 160.613 53.7666   2
  10  -9   5 350.367 99.3238   3
  10   9   5 284.278 80.3199   1
  10   9   6 48.1456 40.7832   2
  10  -9   6-0.84091 39.3725   3
  10   9   7-14.6837 23.3956   2
  10  -9   7-19.4850 42.0422   3
  10   9   8 39.8681 27.9476   2
  10  -9   8 102.690 66.0731   3
  10  -9   9 505.337 125.586   3
  10  -9  10 258.850 88.3750   3
  10  -9  11 0.64325 38.7994   3
  10  -9  12-57.9417 67.5724   3
  10  -9  13 145.148 64.5111   3
  10  10 -14 1.41551 46.1475   2
  10  10 -13 73.9215 58.2214   2
  10  10 -12 23.9057 37.9287   2
  10  10 -11 25.9552 40.3251   2
  10  10 -10 11.2221 27.2689   2
  10  10  -9 91.4379 60.6271   2
  10  10  -8 58.3905 52.1401   2
  10  10  -7-5.89625 54.8632   2
  10  10  -6 48.4945 46.1006   2
  10  10  -5 25.6058 29.0980   2
  10  10  -5 35.3043 33.0882   1
  10  10  -4 20.6340 34.8872   2
  10  10  -4 29.3565 28.8740   1
  10  10  -3 667.535 114.968   1
  10  10  -3 711.032 137.376   2
  10  10  -2 6.11144 27.8645   2
  10  10  -2-26.9679 33.9543   1
  10  10  -1 89.0050 53.5208   1
  10  10  -1 31.7773 41.9146   2
  10  10   0 342.175 92.5490   2
  10  10   0 328.689 81.7950   1
  10  10   1 112.930 58.7535   1
  10  10   1-6.98284 27.5819   2
  10  10   2 1493.27 186.200   1
  10  10   2 1313.24 173.129   2
  10  10   3 1.78648 35.2898   2
  10  10   3 31.3751 32.8738   1
  10  10   4 389.614 95.2949   2
  10 -10   4 314.802 100.559   3
  10  10   4 377.376 101.177   1
  10  10   5 47.8528 28.4012   2
  10 -10   5-25.2349 48.6538   3
  10  10   6-3.09509 24.3425   2
  10 -10   6-32.1551 45.2088   3
  10  10   7 7.72787 21.1208   2
  10 -10   7 71.2699 49.5832   3
  10 -10   8 38.2701 53.2369   3
  10 -10   9-162.092 80.9142   3
  10 -10  10 23.6943 51.5306   3
  10 -10  11 27.5307 40.0354   3
  10  11 -11 14.0272 37.8443   2
  10  11 -10-139.840 73.6424   2
  10  11  -9 50.9478 44.6564   2
  10  11  -8-8.97639 31.6456   2
  10  11  -7 151.149 71.8403   1
  10  11  -7 111.281 64.6580   2
  10  11  -6-19.6067 23.2265   2
  10  11  -6-47.5999 49.0831   1
  10  11  -5-35.0766 51.0147   2
  10  11  -5 27.2212 37.3003   1
  10  11  -4 65.4754 47.1343   1
  10  11  -4 6.30970 24.7979   2
  10  11  -3-24.2751 39.1720   2
  10  11  -3 29.8166 37.9662   1
  10  11  -2-14.8760 22.0956   1
  10  11  -2 56.6068 47.7745   2
  10  11  -1-7.94352 23.8241   2
  10  11  -1 15.7166 28.5718   1
  10  11   0 29.4242 39.6979   1
  10  11   0 6.08288 23.7192   2
  10  11   1 12.8654 23.3534   1
  10  11   1-28.9040 59.0446   2
  10  11   2-6.99262 37.1699   2
  10  11   2-28.9706 47.7739   1
  10  11   3-45.1682 35.7526   1
  10  11   3 61.0213 43.6765   2
  10 -11   3-82.6543 59.9237   3
  10  11   4 96.5071 51.4161   2
  10 -11   4-51.9067 50.8626   3
  10  11   5 96.0215 52.4107   2
  10 -11   5 80.6869 59.3730   3
  10  11   6 24.0001 37.8292   2
  10 -11   6 205.744 95.2109   3
  10  11   7-116.734 56.8176   2
  10 -11   7-89.9712 62.2264   3
  10 -11   8-45.2374 57.8705   3
  10  12  -8 14.1734 48.9135   2
  10  12  -7 100.777 59.1318   2
  10  12  -6 97.1856 65.5714   2
  10  12  -5 27.4450 41.8015   2
  10  12  -4 24.0968 28.1763   2
  10  12  -3 12.9432 41.3522   2
  10  12  -2 99.1954 57.7955   2
  10  12  -1-24.0776 34.2433   2
  10  12   0 264.960 92.3559   2
  10  12   1 51.8560 45.9314   2
  10  12   2 0.25526 20.6595   2
  10 -12   2 12.9876 49.3402   3
  10  12   3 11.3524 28.9778   2
  10 -12   3 2.06332 33.3661   3
  10  12   4-20.7262 30.3548   2
  10  12   5 76.7375 52.7595   2
  10  12   6 37.0752 50.0853   2
  11   0 -24-70.1628 58.2529   2
  11   0 -23-35.5471 62.2799   2
  11   0 -22-23.0733 47.2947   2
  11   0 -21-62.0862 47.5194   2
  11   0 -20-80.3428 64.3342   2
  11   0 -19 128.836 71.1502   2
  11   0 -18 35.2677 40.8124   2
  11   0 -17 103.389 60.7911   2
  11   0 -16-2.34329 35.8780   2
  11   0 -15 5112.00 328.487   2
  11   0 -14-43.5011 54.1947   2
  11   0 -13 1619.32 177.836   2
  11   0 -12 90.9910 61.1874   2
  11   0 -11 8164.34 364.426   2
  11   0 -11 8942.60 446.155   3
  11   0 -10-23.0415 24.4713   3
  11   0 -10-18.7806 31.9729   2
  11   0  -9 3889.12 290.668   3
  11   0  -9 3640.51 232.216   2
  11   0  -8 26.4499 38.4965   3
 -11   0   8-10.4992 22.5659   2
  11   0  -8-7.34690 25.9163   2
 -11   0   7 2053.15 168.986   2
  11   0  -7 1969.84 159.076   2
 -11   0   6 19.3389 21.7206   2
  11   0  -6 23.0465 21.3297   2
 -11   0   5 6421.65 291.737   2
  11   0  -5 6475.06 280.047   2
  11   0  -4 20.7153 28.6767   2
 -11   0   4-20.1651 21.5063   2
 -11   0   3 2194.68 165.314   2
  11   0  -3 1938.34 148.569   2
  11   0  -2 35.0020 26.5726   2
 -11   0   2 7.17793 18.8801   2
  11   0  -1 1544.25 129.659   2
  11   0  -1 1804.46 98.1625   1
 -11   0   1 1456.00 132.376   2
 -11   0   0-0.95083 16.6843   2
  11   0   0 1.43756 15.5083   1
  11   0   0-5.69957 17.2704   2
  11   0   1 1659.04 102.520   1
  11   0   1 1698.63 134.198   2
 -11   0  -1 1730.42 147.511   2
  11   0   2 17.3877 22.7753   2
 -11   0  -2 23.8686 25.6237   2
  11   0   3 514.942 74.9562   2
 -11   0  -3 586.300 90.4073   2
  11   0   4-18.2823 30.9557   2
 -11   0  -4 11.7179 14.8881   2
 -11   0  -5 14.2405 14.6703   1
  11   0   5 39.8357 31.8829   2
 -11   0  -5 21.6536 23.2255   2
 -11   0  -6 9.58986 13.4340   1
 -11   0  -6-0.57148 14.4954   2
 -11   0  -7 93.4921 40.2235   2
 -11   0  -7 66.1427 26.9950   1
 -11   0  -8-13.6590 24.1936   1
  11   0   8 44.9019 37.4557   3
 -11   0  -8-18.8390 26.7996   2
 -11   0  -9 84.5380 32.4712   1
  11   0   9 82.6438 43.0821   3
 -11   0  -9 162.538 58.5486   2
 -11   0 -10-33.2838 30.6287   1
  11   0  10-56.5362 44.2350   3
  11   0  11 1827.51 176.790   3
 -11   0 -11 1932.85 163.397   1
  11   0  12-0.70694 31.0823   3
 -11   0 -12-60.5787 42.0415   1
  11   0  13 962.192 138.162   3
  11   0  14 4.39197 41.5338   3
  11   0  15 142.317 66.4535   3
  11   0  16 46.6910 49.7672   3
  11   0  17 165.114 64.9489   3
  11   0  18 17.0338 34.5602   3
  11   0  19 891.568 162.669   3
  11   0  20 0.88465 51.4879   3
  11   0  21-71.1352 66.6119   3
  11   0  22-93.8732 87.3404   3
  11   0  23 446.910 134.004   3
  11  -1 -25 5.54598 30.3317   2
  11  -1 -24 73.1264 59.8720   2
  11   1 -24-27.9769 51.7603   2
  11  -1 -23 47.7899 54.4202   2
  11   1 -23 17.0826 35.1093   2
  11  -1 -22 0.26557 51.9184   2
  11   1 -22 17.0666 38.3306   2
  11  -1 -21-47.3971 46.1368   2
  11   1 -21 41.7992 50.3384   2
  11  -1 -20 317.997 87.4358   2
  11   1 -20 315.965 96.0081   2
  11  -1 -19-7.30992 33.7684   2
  11   1 -19 117.122 70.6668   2
  11  -1 -18 57.0391 50.8462   2
  11   1 -18 55.6944 35.0378   2
  11  -1 -17 267.930 84.0266   2
  11   1 -17 258.356 79.7417   2
  11  -1 -16 67.1279 57.7216   2
  11   1 -16-0.67823 44.6089   2
  11  -1 -15 328.815 87.8728   2
  11   1 -15 313.738 89.7008   2
  11  -1 -14 884.103 134.184   2
  11   1 -14 787.648 134.679   2
  11  -1 -13 1197.63 149.529   2
  11   1 -13 1271.43 162.170   2
  11   1 -12 51.8349 44.9959   3
  11  -1 -12 26.1742 26.3560   2
  11   1 -12 0.18053 28.3502   2
  11   1 -11-44.8289 35.0132   3
  11  -1 -11 19.4651 24.0775   3
  11   1 -11-47.0843 55.3033   2
  11  -1 -11 12.5900 27.1451   2
  11  -1 -10 1962.07 212.928   3
  11  -1 -10 2038.86 172.241   2
  11   1 -10 1804.73 172.652   2
  11   1 -10 2172.75 207.274   3
  11   1  -9 2.90145 20.5030   3
 -11  -1   9 16.0878 27.9306   2
  11  -1  -9 73.2610 44.3909   2
  11   1  -9-13.1840 26.6882   2
  11   1  -8 762.559 118.595   3
 -11  -1   8 806.011 115.350   2
  11   1  -8 649.641 97.5844   2
  11  -1  -8 705.950 95.2949   2
  11   1  -7 46.2053 34.2446   3
 -11   1   7 8.15837 29.3587   2
 -11  -1   7 39.6849 30.6061   2
  11   1  -7-15.3301 32.4630   2
  11  -1  -7 32.2771 26.1064   2
  11   1  -6 4088.61 263.174   3
 -11   1   6 3747.75 212.950   2
 -11  -1   6 3942.12 242.960   2
  11   1  -6 3645.94 226.083   2
  11  -1  -6 3913.06 211.286   2
  11   1  -5 426.296 78.4530   2
  11  -1  -5 385.764 65.3689   2
 -11   1   5 450.227 76.0990   2
 -11  -1   5 468.354 88.6612   2
  11   1  -4-14.9483 27.7616   2
  11  -1  -4 4.83106 30.1829   2
 -11   1   4-30.5302 29.7809   2
 -11  -1   4 11.7682 31.4456   2
 -11   1   3 2216.54 156.909   2
 -11  -1   3 2344.62 181.603   2
  11   1  -3 2253.07 171.425   2
  11  -1  -3 2468.79 157.108   2
  11   1  -2 170.022 55.1458   2
  11  -1  -2 146.085 37.3237   2
 -11  -1   2 175.579 52.5758   2
 -11   1   2 132.649 42.2719   2
  11   1  -1 256.712 60.9654   2
  11  -1  -1 220.176 48.4613   2
  11  -1  -1 254.986 31.8757   1
 -11  -1   1 225.554 56.2865   2
 -11   1   1 204.191 46.8569   2
  11   1   0 1441.75 96.8372   1
  11   1   0 1249.07 121.123   2
  11  -1   0 1261.81 74.7599   1
  11  -1   0 1250.44 108.267   2
 -11  -1   0 1455.21 141.277   2
 -11   1   0 1334.28 120.551   2
  11   1   1 60.8899 28.0375   1
  11  -1   1 29.1946 23.9600   2
 -11  -1  -1 33.3509 16.8486   2
 -11   1  -1 87.6659 32.7420   2
  11   1   1 77.8943 37.6039   2
 -11  -1  -2 121.543 44.9969   2
  11  -1   2 198.211 45.3280   2
 -11   1  -2 160.757 41.8434   2
  11   1   2 155.807 39.7377   1
  11   1   2 168.327 49.6042   2
 -11   1  -3 3995.26 218.724   2
  11   1   3 4236.25 225.856   2
  11   1   3 3947.83 183.876   1
  11  -1   3 4346.09 206.245   2
 -11  -1  -3 4220.35 251.408   2
  11   1   4 148.384 49.1892   2
 -11   1  -4 147.690 33.1841   1
 -11  -1  -4 112.402 42.3785   2
 -11   1  -4 162.434 50.1766   2
 -11  -1  -5 2355.76 187.736   2
 -11   1  -5 2410.59 177.990   2
 -11  -1  -5 2688.80 154.533   1
  11   1   5 2167.81 165.077   2
 -11   1  -5 2479.52 125.177   1
  11   1   5 2088.96 150.802   3
 -11  -1  -6 131.628 39.2752   1
  11   1   6 132.071 44.5331   2
 -11  -1  -6 107.419 46.3227   2
  11  -1   6 141.844 52.4232   3
  11   1   6 101.297 41.6891   3
 -11   1  -6 148.677 45.0419   2
 -11   1  -6 120.822 30.8065   1
 -11  -1  -7 23.5873 22.2231   1
 -11   1  -7 3.14352 15.0488   1
  11  -1   7-23.2396 34.7648   3
 -11  -1  -7 6.61273 39.9615   2
 -11   1  -7 9.48215 16.9699   2
 -11  -1  -8 23.3217 20.0499   1
 -11   1  -8 46.1684 20.5614   1
  11  -1   8 125.251 48.1196   3
 -11  -1  -8 23.3559 22.0955   2
 -11   1  -8 93.9634 40.0544   2
 -11   1  -9 553.647 98.6617   2
  11  -1   9 455.448 93.4543   3
 -11  -1  -9 530.218 81.9412   1
 -11  -1  -9 500.556 94.8533   2
 -11   1  -9 472.833 71.9233   1
 -11   1 -10 566.649 99.7097   2
  11  -1  10 481.868 92.7428   3
 -11  -1 -10 612.392 89.4040   1
  11   1  10 546.026 92.4528   3
 -11  -1 -11 576.414 89.0754   1
  11  -1  11 523.619 102.359   3
  11   1  11 621.627 99.8294   3
  11  -1  12 75.2087 42.0468   3
  11   1  12 125.061 50.2595   3
  11  -1  13 405.569 96.0447   3
  11   1  13 344.430 82.4721   3
  11  -1  14 92.8982 39.0717   3
  11   1  14-9.33306 44.7566   3
  11  -1  15 314.079 95.0393   3
  11   1  15 192.909 65.9428   3
  11  -1  16 9.80238 36.3680   3
  11   1  16 29.6568 32.8228   3
  11  -1  17 481.785 115.283   3
  11   1  17 501.525 114.213   3
  11  -1  18 660.927 136.132   3
  11   1  18 540.852 117.402   3
  11  -1  19 341.263 105.495   3
  11   1  19 345.840 102.648   3
  11  -1  20 2.13387 44.6086   3
  11   1  20 80.9521 56.6282   3
  11   1  21 37.6738 46.5513   3
  11  -1  21 140.199 79.1307   3
  11   1  22 195.566 92.5498   3
  11  -1  22-2.08441 33.7838   3
  11   1  23 20.8951 41.0592   3
  11  -1  23 56.2409 58.3615   3
  11   1  24 67.7214 47.2408   3
  11  -2 -25 137.458 72.2470   2
  11  -2 -24-43.7231 43.8195   2
  11  -2 -23-37.7228 43.3212   2
  11   2 -23 97.4317 61.6218   2
  11  -2 -22-59.9202 61.2160   2
  11   2 -22 44.0380 47.3114   2
  11  -2 -21 115.944 55.4110   2
  11   2 -21 208.994 89.5569   2
  11  -2 -20 5.85307 28.2389   2
  11   2 -20-9.59193 35.2649   2
  11  -2 -19-30.9015 51.3139   2
  11   2 -19-93.3409 71.3936   2
  11  -2 -18-2.14484 29.3854   2
  11   2 -18 12.4639 33.6297   2
  11  -2 -17 35.8569 45.4091   2
  11   2 -17 24.4213 31.4691   2
  11  -2 -16 144.178 60.8375   2
  11   2 -16 196.258 82.3370   2
  11  -2 -15 42.2974 29.3139   2
  11   2 -15 0.45453 41.0975   2
  11   2 -14 789.335 137.212   2
  11  -2 -14 678.496 108.560   2
  11  -2 -13 158.996 59.0621   2
  11   2 -13 73.9936 47.7849   2
  11  -2 -12 415.440 92.6747   2
  11   2 -12 747.962 125.068   2
  11   2 -12 675.580 116.555   3
  11  -2 -11 906.390 112.739   2
  11   2 -11 632.181 107.325   2
  11   2 -11 905.637 130.788   3
  11  -2 -10 2053.43 227.184   3
  11  -2 -10 1877.62 157.805   2
  11   2 -10 1759.68 179.112   2
  11   2 -10 1895.99 181.291   3
  11  -2  -9 64.5902 32.4137   2
  11   2  -9 28.9401 23.4757   3
 -11  -2   9-19.9936 30.6456   2
  11   2  -9 59.4342 41.5458   2
  11   2  -8 31.3131 26.4840   3
 -11  -2   8 102.138 48.1024   2
  11   2  -8 39.1856 31.1096   2
  11  -2  -8 40.4581 18.0750   2
  11   2  -7 26.3127 23.9756   3
 -11  -2   7 0.50092 19.8446   2
  11   2  -7 33.5800 29.4116   2
  11  -2  -7 7.58221 16.8939   2
  11  -2  -6-8.79771 16.0123   2
  11   2  -6-21.6854 19.8690   3
 -11   2   6-13.4897 22.1915   2
 -11  -2   6 51.2130 33.4172   2
  11   2  -6-4.66912 28.7450   2
  11   2  -5 28.6414 28.9757   2
  11  -2  -5 45.3524 21.4921   2
  11   2  -5 26.6965 16.3500   3
 -11   2   5 37.8350 23.8121   2
 -11  -2   5 59.6189 38.2100   2
  11   2  -4 737.228 99.4542   3
  11   2  -4 556.546 90.2579   2
 -11   2   4 611.897 76.7148   2
 -11  -2   4 780.432 111.018   2
  11  -2  -4 607.180 72.9671   2
  11   2  -3 236.959 64.9202   2
  11  -2  -3 124.373 34.8398   2
 -11   2   3 190.934 44.7565   2
 -11  -2   3 200.040 60.3671   2
  11  -2  -2 2038.65 74.0014   1
  11  -2  -2 1801.19 120.040   2
 -11   2   2 1750.37 126.333   2
 -11  -2   2 1786.45 161.940   2
  11   2  -2 1594.48 150.543   2
  11  -2  -1 353.980 30.6964   1
 -11  -2   1 340.677 75.1191   2
  11  -2  -1 382.976 55.1656   2
 -11   2   1 340.437 57.5850   2
  11   2   0 9880.22 274.022   1
  11  -2   0 9820.86 282.840   2
 -11  -2   0 10412.2 397.644   2
 -11   2   0 9341.48 301.283   2
 -11  -2  -1 273.025 65.6280   2
 -11   2  -1 219.744 47.1626   2
  11  -2   1 284.739 49.1419   2
  11   2   1 265.770 51.8985   1
  11   2   2 8915.52 283.596   1
 -11  -2  -2 9219.90 380.452   2
  11  -2   2 8885.54 276.235   2
 -11   2  -2 8620.49 303.994   2
  11   2   3-11.2257 29.2206   1
 -11  -2  -3 29.7626 32.6765   2
 -11   2  -3 48.0247 29.7394   2
 -11   2  -4 2107.82 98.5358   1
 -11   2  -4 1945.04 147.586   2
  11   2   4 1936.05 125.220   3
  11   2   4 1961.90 159.516   2
 -11  -2  -4 2018.92 181.419   2
 -11   2  -5 1987.51 155.705   2
  11   2   5 2022.02 134.444   3
  11   2   5 1847.78 156.551   2
 -11   2  -5 2042.74 105.627   1
 -11  -2  -5 2014.30 182.102   2
 -11  -2  -6 720.695 112.607   2
 -11   2  -6 631.024 92.6951   2
  11   2   6 634.962 92.5230   2
 -11  -2  -6 610.403 85.8493   1
  11   2   6 644.958 81.8713   3
 -11   2  -6 741.460 71.2359   1
 -11  -2  -7 742.223 89.1938   1
 -11   2  -7 794.842 105.292   2
  11   2   7 745.333 104.489   2
 -11  -2  -7 711.344 111.492   2
  11   2   7 686.494 84.0265   3
  11  -2   7 661.109 105.024   3
 -11   2  -7 708.129 76.0536   1
 -11   2  -8-6.11677 22.9460   2
  11  -2   8-1.81042 29.5899   3
 -11  -2  -8-2.69234 19.5993   1
 -11  -2  -8-12.2739 34.7505   2
  11   2   8 15.6008 19.7191   3
  11  -2   9 1135.15 141.873   3
 -11  -2  -9 1030.90 112.454   1
 -11   2  -9 1183.86 138.007   2
 -11   2 -10 646.871 103.597   2
  11  -2  10 500.810 103.073   3
 -11  -2 -10 483.607 82.5880   1
  11  -2  11 2029.05 201.126   3
  11   2  11 1938.30 166.819   3
  11  -2  12 122.501 64.8545   3
  11   2  12 173.215 53.2901   3
  11  -2  13 171.795 72.9315   3
  11   2  13 115.150 48.6832   3
  11  -2  14-17.8806 40.3270   3
  11   2  14 3.83916 24.3063   3
  11  -2  15-56.0036 59.1772   3
  11   2  15 31.6032 37.6739   3
  11  -2  16 245.691 83.9541   3
  11   2  16 144.305 63.4680   3
  11  -2  17 102.278 49.5422   3
  11   2  17 13.2914 28.5955   3
  11  -2  18 203.963 83.7408   3
  11   2  18 31.3789 27.5178   3
  11   2  19 5.45046 30.5376   3
  11  -2  19-31.2345 40.0916   3
  11   2  20 340.546 98.9270   3
  11  -2  20 434.395 119.459   3
  11   2  21 4.49430 40.2866   3
  11  -2  21 141.961 79.7053   3
  11   2  22 0.64177 42.2260   3
  11  -2  22 41.8182 48.5159   3
  11   2  23-120.385 71.4311   3
  11   2  24-86.0957 65.2576   3
  11  -3 -25-17.1928 32.1946   2
  11  -3 -24-54.0471 45.6441   2
  11  -3 -23-18.2227 34.4598   2
  11   3 -23-136.208 77.2624   2
  11  -3 -22 46.0856 40.5434   2
  11   3 -22 76.4188 58.9967   2
  11  -3 -21 14.2093 31.5657   2
  11   3 -21-46.1691 66.0091   2
  11   3 -20-44.9487 67.8494   2
  11  -3 -20-16.8201 29.1424   2
  11   3 -19 28.0491 50.6502   2
  11  -3 -19 72.4781 43.3127   2
  11  -3 -18 409.935 93.7298   2
  11   3 -18 401.404 107.119   2
  11  -3 -17 40.0850 39.8438   2
  11   3 -17 77.3196 53.1139   2
  11  -3 -16 409.011 89.1514   2
  11   3 -16 474.591 115.394   2
  11  -3 -15 20.7677 31.7198   2
  11   3 -15-12.8359 55.4661   2
  11   3 -14 686.296 131.201   2
  11  -3 -14 716.264 116.041   2
  11  -3 -13-13.6380 33.7919   2
  11   3 -13-38.3830 53.6996   2
  11   3 -12 6.46971 36.9658   2
  11  -3 -12 125.284 45.9368   2
  11   3 -12 82.1680 43.5486   3
  11  -3 -11-32.9067 29.3446   2
  11   3 -11-84.7486 61.1722   2
  11   3 -11-0.85426 29.2084   3
  11  -3 -10 391.267 67.0110   2
  11   3 -10 544.371 103.903   2
  11   3 -10 515.268 91.4207   3
  11  -3  -9 367.406 62.9331   2
  11   3  -9 323.035 74.5686   2
  11   3  -9 398.118 81.4723   3
  11   3  -8 9.41356 20.9509   3
 -11  -3   8-27.4358 44.6889   2
  11   3  -8 37.8200 39.2694   2
  11  -3  -8-6.52602 15.8129   2
 -11  -3   7 3784.05 268.641   2
  11  -3  -7 3542.21 178.389   2
  11   3  -7 3249.93 236.605   2
  11   3  -7 3547.75 215.447   3
  11   3  -6 508.301 77.6004   3
 -11  -3   6 624.902 106.030   2
  11  -3  -6 621.270 71.9951   2
  11   3  -6 490.685 90.5170   2
 -11   3   5 1412.39 107.817   2
 -11  -3   5 1780.00 182.816   2
  11   3  -5 1377.33 152.033   2
  11   3  -5 1506.22 129.563   3
  11  -3  -5 1474.31 106.533   2
  11   3  -4 37.9472 22.0596   3
  11   3  -4 121.977 51.2444   2
 -11   3   4 151.864 37.4072   2
 -11  -3   4 82.3723 40.8630   2
  11  -3  -4 121.850 28.2839   2
  11  -3  -3 659.062 66.9266   2
 -11   3   3 673.656 72.7263   2
 -11  -3   3 914.070 123.645   2
  11   3  -3 814.955 111.585   2
  11   3  -3 724.160 84.1248   3
  11   3  -2 248.972 48.1628   3
 -11   3   2 210.406 43.1351   2
 -11  -3   2 337.573 79.7602   2
  11  -3  -2 270.399 41.4877   2
  11  -3  -1 101.453 27.2449   2
  11   3  -1 115.059 32.5427   3
 -11  -3   1 86.8057 42.4852   2
 -11   3   1 88.5308 27.5617   2
 -11   3   0 374.808 56.5321   2
  11   3   0 501.621 70.1401   1
  11  -3   0 378.164 51.8044   2
 -11  -3   0 445.262 86.2107   2
 -11   3  -1 50.4399 22.0053   2
  11   3   1 80.7314 32.5359   1
 -11  -3  -1 49.7306 26.0738   2
  11   3   2 2573.83 163.911   1
 -11  -3  -2 2485.79 205.756   2
 -11   3  -2 2546.10 155.722   2
 -11   3  -3 860.911 92.9777   2
 -11  -3  -3 724.725 111.295   2
  11   3   3 897.791 115.178   2
  11   3   3 772.699 93.7344   1
  11   3   3 844.251 68.8058   3
 -11   3  -4 1093.86 58.9314   1
 -11   3  -4 900.803 97.9612   2
  11   3   4 1149.29 129.335   2
  11   3   4 932.080 77.9855   3
  11   3   4 981.265 106.921   1
 -11  -3  -4 1148.48 140.383   2
  11   3   5 523.696 86.8426   2
 -11   3  -5 501.050 78.9370   2
  11   3   5 584.729 63.7604   3
 -11   3  -5 586.084 51.9084   1
 -11  -3  -5 742.635 116.512   2
  11   3   6 638.599 95.5019   2
 -11   3  -6 860.496 102.682   2
  11   3   6 813.470 79.1510   3
 -11   3  -6 740.124 66.5612   1
 -11  -3  -6 731.445 117.303   2
  11   3   7 495.020 86.7604   2
 -11   3  -7 625.043 91.1329   2
 -11  -3  -7 671.102 88.3222   1
  11  -3   7 609.877 106.677   3
  11   3   7 525.892 65.5523   3
 -11  -3  -8 9424.47 336.214   1
  11  -3   8 7800.06 381.773   3
 -11   3  -8 8680.10 351.115   2
  11   3   8 8886.39 287.317   3
 -11   3  -9 56.5653 29.7201   2
  11  -3   9 98.0458 59.3623   3
  11   3   9 79.2262 32.7149   3
  11  -3  10 440.166 107.336   3
 -11   3 -10 438.404 85.7466   2
  11  -3  11 37.5963 58.2019   3
  11  -3  12 590.363 116.256   3
  11  -3  13 157.034 63.0428   3
  11   3  13 115.880 50.4646   3
  11  -3  14 644.253 127.938   3
  11   3  14 570.877 99.2325   3
  11   3  15 126.803 54.8070   3
  11  -3  15 282.762 93.0479   3
  11   3  16-3.99767 38.8177   3
  11  -3  16 17.4826 35.5086   3
  11   3  17 5.21019 26.5813   3
  11  -3  17 7.48609 30.1145   3
  11   3  18 331.464 90.8952   3
  11  -3  18 135.494 73.1980   3
  11   3  19 51.5392 32.0599   3
  11  -3  19 56.6334 34.0345   3
  11   3  20-56.0628 55.5967   3
  11  -3  20-53.3691 85.8303   3
  11   3  21 32.8202 46.0947   3
  11  -3  21-93.4131 81.1635   3
  11   3  22 9.80751 54.5131   3
  11   3  23 33.5882 37.6145   3
  11  -4 -23 2.41975 46.5698   2
  11  -4 -22 78.3608 47.1523   2
  11   4 -22 75.0785 61.9874   2
  11   4 -21 192.842 92.5309   2
  11  -4 -21 220.634 68.7395   2
  11  -4 -20 282.447 87.6118   2
  11   4 -20 649.745 153.239   2
  11  -4 -19 299.501 88.9272   2
  11   4 -19 187.171 82.1103   2
  11   4 -18 67.2783 61.5231   2
  11  -4 -18 28.0560 29.6013   2
  11  -4 -17 95.0622 45.8842   2
  11   4 -17 54.4123 66.6328   2
  11  -4 -16 46.3234 33.5368   2
  11   4 -16 66.7742 46.2519   2
  11  -4 -15 24.5656 36.3663   2
  11   4 -15 338.516 105.139   2
  11  -4 -14 2193.58 182.820   2
  11   4 -14 1952.49 223.582   2
  11  -4 -13 171.283 53.8382   2
  11   4 -13 145.574 68.7662   2
  11   4 -12 145.085 65.5920   2
  11   4 -12 136.400 45.1209   3
  11  -4 -12 93.8960 33.8296   2
  11  -4 -11 195.595 47.5324   2
  11   4 -11 183.495 68.2604   2
  11   4 -11 131.712 49.5263   3
  11  -4 -10 70.5143 34.0287   2
  11   4 -10 43.6970 40.7474   2
  11   4 -10 74.7259 39.9811   3
  11   4  -9 263.463 77.8785   2
  11  -4  -9 264.557 48.7683   2
  11   4  -9 197.796 57.9597   3
  11  -4  -8 48.1794 25.4874   2
  11   4  -8 79.0002 53.1560   2
  11   4  -8 86.3774 31.2737   3
  11  -4  -7 443.566 56.3163   2
  11   4  -7 367.419 65.6027   3
  11   4  -7 379.603 88.9401   2
 -11  -4   6 363.019 88.7624   2
  11   4  -6 411.629 67.7839   3
  11  -4  -6 354.149 46.6604   2
  11   4  -6 316.129 76.5535   2
  11   4  -5 23.8638 28.7784   2
 -11  -4   5 52.4067 46.0775   2
  11  -4  -5 17.9418 9.86693   2
  11   4  -5 70.1761 29.1101   3
  11   4  -4 27.2321 25.1938   2
 -11   4   4 42.2853 14.8458   2
 -11  -4   4 124.128 57.5940   2
  11  -4  -4 25.5632 11.3798   2
  11   4  -4 20.8837 17.1042   3
  11  -4  -3 118.442 24.5826   2
  11   4  -3 69.3493 32.2569   2
 -11   4   3 133.800 27.7423   2
 -11  -4   3 65.2572 34.7597   2
  11   4  -3 96.1231 26.9470   3
 -11  -4   2 607.118 106.096   2
  11   4  -2 478.687 89.9756   2
 -11   4   2 598.273 60.0731   2
  11   4  -2 624.366 62.6566   3
  11   4  -1 169.005 29.7346   3
  11   4  -1 239.735 54.4505   1
  11   4  -1 170.514 55.8753   2
 -11   4   1 245.862 39.8627   2
 -11  -4   1 246.079 60.9895   2
  11   4   0 4995.20 282.605   2
  11   4   0 5107.84 231.452   1
 -11  -4   0 5315.06 310.196   2
 -11   4   0 4941.71 188.737   2
  11   4   0 4978.01 143.530   3
  11   4   1 10.1471 7.56227   3
 -11   4  -1 23.5775 18.3727   2
  11   4   1 52.6052 41.2260   1
  11   4   1 2.23727 26.9117   2
  11   4   1 13.0366 8.71322   3
 -11  -4  -1-33.0077 24.5727   2
 -11  -4  -2 285.542 77.5674   2
 -11   4  -2 273.586 46.8297   2
  11   4   2 199.347 62.7224   2
  11   4   2 302.177 30.6734   3
  11   4   2 269.328 59.0591   1
 -11  -4  -3-46.6599 31.4372   2
  11   4   3-23.1702 33.4407   1
 -11   4  -3 0.80659 11.6738   2
  11   4   3 31.2177 28.3857   2
  11   4   4 782.976 101.613   1
 -11   4  -4 1013.09 45.9381   1
 -11   4  -4 786.967 89.5334   2
  11   4   4 754.680 107.962   2
  11   4   4 758.913 49.4502   3
 -11  -4  -4 907.500 132.888   2
 -11   4  -5 3462.58 194.014   2
  11   4   5 3377.73 229.246   2
 -11   4  -5 3756.31 117.311   1
  11   4   5 3525.34 119.819   3
  11   4   6 3508.02 231.681   2
 -11   4  -6 3626.55 205.898   2
  11   4   6 3356.24 131.100   3
 -11   4  -7-12.7278 20.9845   2
  11   4   7 57.9041 43.5550   2
  11  -4   7 18.7786 38.2213   3
  11   4   7 13.3531 15.7764   3
 -11   4  -8 117.941 40.7675   2
  11   4   8 108.291 43.2152   2
  11  -4   8 119.848 49.0546   3
  11   4   8 180.742 36.1279   3
  11  -4   9 2248.82 221.691   3
 -11   4  -9 2485.54 191.396   2
  11   4   9 2574.47 152.550   3
  11   4  10 467.464 70.0809   3
 -11   4 -10 398.462 76.2741   2
  11  -4  10 406.020 97.5684   3
  11   4  11-21.3442 26.1699   3
  11  -4  11-37.3499 38.3378   3
  11  -4  12 293.834 90.4897   3
  11  -4  13 33.3649 35.5032   3
  11   4  14 307.596 75.3578   3
  11  -4  14 281.478 92.0836   3
  11   4  15 82.4640 33.7496   3
  11  -4  15 224.699 85.5500   3
  11   4  16 97.7433 60.0338   3
  11  -4  16 356.937 109.333   3
  11   4  17 277.105 73.2641   3
  11  -4  17 175.754 82.2039   3
  11   4  18-1.62954 41.9453   3
  11  -4  18-34.1447 30.7350   3
  11   4  19 239.856 78.9232   3
  11  -4  19 191.688 76.9389   3
  11   4  20-5.98825 33.0111   3
  11  -4  20-88.9972 71.4224   3
  11   4  21 75.3271 68.9176   3
  11   5 -21-12.6963 40.4271   2
  11   5 -20-55.7135 80.5843   2
  11   5 -19 123.631 75.7179   2
  11  -5 -19 11.1325 25.0196   2
  11  -5 -18-33.0242 44.3962   2
  11   5 -18 12.3857 39.4624   2
  11  -5 -17-47.0226 39.9631   2
  11   5 -17 188.747 89.4658   2
  11  -5 -16-21.7954 32.8022   2
  11   5 -16-144.329 87.1777   2
  11   5 -15-22.1513 62.1443   2
  11  -5 -15 25.1334 22.9924   2
  11  -5 -14 1136.77 130.383   2
  11   5 -14 953.312 160.471   2
  11  -5 -13 2633.08 180.433   2
  11   5 -13 2658.91 261.457   2
  11  -5 -12 283.467 57.8116   2
  11   5 -12 194.836 71.9790   2
  11   5 -12 250.130 68.4229   3
  11  -5 -11 747.652 82.8272   2
  11   5 -11 716.158 112.930   3
  11   5 -11 654.550 122.948   2
  11   5 -10-39.0941 37.3972   3
  11   5 -10 11.9430 28.6644   2
  11  -5 -10 21.3395 15.5441   2
  11  -5  -9 131.634 31.3926   2
  11   5  -9 164.260 52.1664   3
  11   5  -9 150.736 65.2818   2
  11   5  -8 1335.01 165.672   2
  11   5  -8 1317.78 129.854   3
  11  -5  -8 1365.94 82.2947   2
  11  -5  -7 263.606 35.7283   1
  11  -5  -7 269.459 31.8484   2
  11   5  -7 223.702 56.0993   3
  11   5  -7 239.527 74.8035   2
  11   5  -6 19.8261 32.7473   2
  11   5  -6 1.86928 14.3603   3
  11  -5  -6-2.99498 7.12895   1
  11  -5  -6 2.45874 5.40318   2
  11   5  -5 34.8970 40.9308   2
  11   5  -5-15.5703 20.9602   3
  11   5  -4 2862.75 141.570   3
  11   5  -4 2767.00 226.887   2
  11   5  -3 113.517 57.8103   2
  11   5  -3 108.061 24.5873   3
  11   5  -2 133.039 55.9222   2
 -11   5   2 52.4049 13.7729   2
  11   5  -2 79.8968 17.7663   3
  11   5  -1 498.114 82.3727   1
 -11   5   1 327.756 37.8251   2
  11   5  -1 292.868 75.8211   2
  11   5   0 494.086 83.4557   1
  11   5   0 558.621 99.7032   2
 -11   5   0 544.667 53.3678   2
 -11   5  -1 788.755 71.4217   2
  11   5   1 746.733 114.213   2
  11   5   1 796.018 101.323   1
  11   5   2-18.1397 30.6299   1
 -11   5  -2 27.8620 21.1666   2
  11   5   2 7.71270 38.1477   2
 -11   5  -3 1272.70 102.561   2
  11   5   3 1510.86 162.748   2
  11   5   3 1366.84 139.195   1
  11   5   4 105.454 54.8492   1
 -11   5  -4 85.9831 30.6202   2
  11   5   4 102.227 44.6675   2
  11   5   5 622.944 103.597   2
 -11   5  -5 709.245 86.3521   2
 -11   5  -5 761.887 46.4996   1
  11   5   5 648.327 101.214   1
 -11   5  -6-18.3667 22.3812   2
  11   5   6-11.2073 44.8055   2
  11   5   7 514.270 93.6783   2
  11  -5   7 574.916 109.066   3
 -11   5  -7 573.401 85.1655   2
 -11   5  -8 5.17707 17.1794   2
  11   5   8 44.4865 39.8128   2
  11  -5   8-45.8174 49.6764   3
  11   5   9 240.021 41.2742   3
 -11   5  -9 243.993 61.0709   2
  11  -5   9 145.137 56.1797   3
  11   5  10 50.1119 27.5070   3
 -11   5 -10 55.5360 35.4532   2
  11  -5  10-36.3404 47.0195   3
  11   5  11-10.4971 26.8964   3
  11  -5  11 136.628 73.1114   3
  11   5  12 153.108 45.3076   3
  11  -5  12 143.041 74.1470   3
  11  -5  13 539.828 123.366   3
  11  -5  14 57.7120 47.9168   3
  11   5  15-4.44979 26.5628   3
  11  -5  15-66.0824 60.5378   3
  11   5  16 477.931 95.0849   3
  11  -5  16 414.300 111.505   3
  11   5  17-68.7297 52.4683   3
  11  -5  17-158.901 78.4799   3
  11  -5  18 168.711 84.4027   3
  11  -5  19 124.265 68.8798   3
 -11  -6  20-7.86001 54.4458   3
 -11  -6  19-141.211 79.2634   3
  11   6 -19-19.2602 57.2853   2
 -11  -6  18 21.4128 59.1715   3
  11   6 -18 1.34828 32.1027   2
 -11  -6  17 41.9949 48.9746   3
  11   6 -17 71.0415 42.0766   2
 -11  -6  16-80.8512 69.4647   3
  11   6 -16 2.77981 46.0023   2
 -11  -6  15 428.664 111.812   3
  11   6 -15 196.387 72.6890   2
  11  -6 -14 57.7172 29.7344   2
  11   6 -14-1.12912 35.5895   2
  11  -6 -13 448.263 65.7249   2
  11   6 -13 536.562 120.617   2
  11   6 -12-15.2783 45.4812   3
  11   6 -12 44.9813 40.3354   2
  11  -6 -12 52.7584 22.7635   2
  11   6 -11-2.26917 22.3358   3
  11  -6 -11 23.9265 12.7859   2
  11  -6 -10 91.6975 28.2420   1
  11  -6 -10 114.618 21.5106   2
  11   6 -10 66.0390 32.5463   3
  11   6 -10 155.711 64.7252   2
  11  -6  -9 19.4656 14.5586   1
  11   6  -9 5.97778 19.8933   3
  11   6  -9-11.8464 43.8913   2
  11   6  -8 607.580 88.9152   3
  11  -6  -8 660.659 56.9499   1
  11   6  -8 697.124 129.059   2
  11  -6  -7 1723.16 80.3071   1
  11   6  -7 1675.55 137.663   3
  11   6  -7 1889.52 205.396   2
  11   6  -6 247.514 73.9254   2
  11   6  -6 199.140 46.3736   3
  11   6  -5 2462.38 138.194   3
  11   6  -5 2248.95 215.352   2
  11   6  -4 2218.50 113.834   3
  11   6  -4 2264.51 214.789   2
  11   6  -3 1009.69 140.943   2
  11   6  -2-3.59176 34.9122   2
  11   6  -1 318.700 67.3996   1
  11   6  -1 271.311 73.3960   2
  11   6   0 1467.60 167.703   2
  11   6   0 1375.66 139.227   1
  11   6   1 579.287 94.7335   1
 -11   6  -1 525.991 46.2019   2
  11   6   1 545.618 102.233   2
 -11   6  -2 321.924 42.3431   2
  11   6   2 271.763 69.5486   2
  11   6   2 411.343 81.8912   1
 -11   6  -3 291.794 46.4939   2
  11   6   3 289.771 76.5111   1
  11   6   3 190.792 60.9931   2
  11   6   4 62.2758 39.2111   1
 -11   6  -4 14.3043 14.2948   2
  11   6   4-12.6964 37.3816   2
  11   6   5 186.710 59.7559   2
 -11   6  -5 131.324 36.6397   2
  11   6   5 96.3188 40.1054   1
 -11   6  -6 9.52120 12.1703   2
  11   6   6-11.7307 30.0430   2
 -11   6  -7-29.7194 23.0868   2
  11   6   7 79.4075 43.0709   2
  11  -6   7 55.4432 54.0878   3
 -11   6  -8-0.62953 13.6161   2
  11   6   8 14.7590 24.8751   2
  11  -6   8 37.9569 44.0881   3
 -11   6  -9-6.11493 22.1585   2
  11  -6   9 96.2092 74.6702   3
 -11   6 -10 160.608 53.1375   2
  11  -6  10 140.632 63.4592   3
  11  -6  11 55.5603 48.9487   3
  11  -6  12 353.201 108.502   3
  11  -6  13 33.2943 38.9415   3
  11  -6  14 133.347 63.3923   3
  11  -6  15-19.5785 54.2022   3
  11  -6  16 59.5206 56.3749   3
  11  -6  17-83.0391 68.1770   3
  11  -6  18-58.3598 69.3084   3
 -11  -7  21 39.4497 51.9064   3
 -11  -7  20 74.9025 61.5682   3
 -11  -7  19 0.74722 33.0251   3
 -11  -7  18-23.8058 51.8794   3
  11   7 -18 0.35375 27.8423   2
 -11  -7  17-0.32719 29.7031   3
  11   7 -17 80.9293 63.4774   2
 -11  -7  16-35.1007 52.2183   3
  11   7 -16-17.8987 43.0245   2
 -11  -7  15 134.410 74.2396   3
  11   7 -15-61.5452 50.8870   2
 -11  -7  14-12.9229 32.3328   3
  11   7 -14-110.754 75.4677   2
 -11  -7  13 87.2368 40.3537   3
  11   7 -13 6.32750 47.1367   2
  11   7 -12 360.852 105.538   2
  11   7 -11-7.94228 22.0026   3
  11   7 -11-39.9394 56.4615   2
  11  -7 -10-1.54356 13.2992   1
  11   7 -10-35.6492 34.6121   3
  11   7 -10-63.3358 60.0311   2
  11  -7  -9 12.3053 14.9125   1
  11   7  -9-3.75555 22.0986   3
  11   7  -9 49.6951 36.3578   2
  11   7  -8 50.6395 49.8658   2
  11   7  -8 2.51723 15.0999   3
  11   7  -7 973.913 101.472   3
  11   7  -7 1066.10 160.247   2
  11   7  -6 105.838 68.0160   2
  11   7  -6 206.784 44.8172   3
  11   7  -5 387.000 96.4959   2
  11   7  -4-16.6322 33.2081   2
  11   7  -3 113.179 54.1192   2
  11   7  -2 169.803 63.4586   2
  11   7  -2 232.819 65.9175   1
  11   7  -1 2871.70 243.548   2
  11   7  -1 3144.50 217.887   1
  11   7   0 2834.72 239.445   2
  11   7   0 3340.91 228.579   1
  11   7   1 1688.20 188.396   2
  11   7   1 1873.95 169.899   1
 -11   7  -2 162.779 21.3545   2
  11   7   2 136.297 53.9732   2
  11   7   2 212.677 62.9189   1
 -11   7  -3 466.229 50.6929   2
  11   7   3 457.612 94.8317   1
  11   7   3 544.103 105.639   2
 -11   7  -3 474.146 50.5432   2
  11   7   4 53.3790 38.9122   2
  11   7   4-22.2520 38.7744   1
 -11   7  -4-16.8298 17.9778   2
  11   7   5 52.6437 34.5595   2
 -11   7  -5 35.8558 11.8742   2
  11   7   5-39.7062 30.1541   1
  11  -7   6 6.58540 37.6625   3
 -11   7  -6 4.60902 18.6120   2
 -11   7  -7 9.97892 22.2313   2
  11   7   7 21.9007 27.7171   2
  11  -7   7 21.2145 30.7142   3
 -11   7  -8 356.968 70.6683   2
  11   7   8 359.397 88.5635   2
  11  -7   8 359.665 97.7997   3
 -11   7  -9 72.9232 37.8144   2
  11  -7   9-33.0174 41.3599   3
  11  -7  10 205.431 76.5106   3
  11  -7  11 7.34308 45.3836   3
  11  -7  12-57.7733 52.1967   3
  11  -7  13 71.3710 57.6586   3
  11  -7  14 141.056 80.0167   3
  11  -7  15 214.099 88.2244   3
  11  -7  16 124.581 69.6075   3
 -11  -8  20-119.744 74.9759   3
 -11  -8  19 73.2866 59.8836   3
 -11  -8  18 5.68720 47.5916   3
 -11  -8  17 9.96212 41.5049   3
  11   8 -17-44.2124 47.8105   2
 -11  -8  16 96.2747 49.2678   3
  11   8 -16 15.1205 30.9505   2
 -11  -8  15 145.388 67.4963   3
  11   8 -15 120.275 72.0864   2
 -11  -8  14 131.639 63.0019   3
  11   8 -14 259.273 100.780   2
 -11  -8  13 141.323 62.3077   3
  11   8 -13-23.2527 48.4299   2
 -11  -8  12 170.113 61.0264   3
  11   8 -12 101.835 58.7336   2
  11   8 -11 17.0322 37.1267   2
  11   8 -10 45.0153 47.5275   2
  11   8  -9 16.1102 29.1875   2
  11   8  -8 252.650 84.1820   2
  11   8  -7 130.067 73.2733   2
  11   8  -6 324.308 95.6483   2
  11   8  -5 96.6623 54.2764   2
  11   8  -4 204.184 77.4034   2
  11   8  -3-20.8371 41.5816   2
  11   8  -3 108.847 45.0401   1
  11   8  -2-5.29685 31.2117   2
  11   8  -2-2.64593 27.2567   1
  11   8  -1-41.2525 43.1166   2
  11   8  -1 2.64899 21.6004   1
  11   8   0 521.166 93.9776   1
  11   8   0 488.156 106.539   2
  11   8   1 1636.38 188.854   2
  11   8   1 1694.58 178.640   1
  11   8   2-31.8205 41.8452   1
  11   8   2 38.8720 43.9349   2
  11   8   3 16.2194 31.0819   1
  11   8   3 35.5356 35.1886   2
  11   8   4 63.3817 44.5891   2
  11   8   4 44.4908 37.2874   1
 -11   8  -4-6.56111 14.1827   2
  11   8   5 368.753 92.5523   2
 -11   8  -5 367.710 53.7718   2
  11   8   5 257.810 70.0518   1
  11   8   6 39.1430 40.2372   2
 -11   8  -6 33.5864 21.1547   2
  11  -8   6 15.7658 41.4150   3
  11   8   7 30.9463 38.1244   2
  11  -8   7 35.7299 35.8157   3
  11  -8   8 88.6358 65.5117   3
  11   8   8-2.05333 20.5383   2
  11  -8   9 7.70153 38.9405   3
  11  -8  10 58.2644 61.5694   3
  11  -8  11 295.631 107.543   3
  11  -8  12 39.2984 40.2826   3
  11  -8  13 178.745 78.9132   3
  11  -8  14 165.823 89.9850   3
  11   9 -15 18.7813 40.2678   2
  11   9 -14 102.942 64.4020   2
  11   9 -13 136.203 65.9272   2
  11   9 -12 103.770 62.0467   2
  11   9 -11-47.5428 32.8837   2
  11   9 -10 105.115 52.9113   2
  11   9  -9 55.6175 52.2102   2
  11   9  -8 124.975 70.7993   2
  11   9  -7-7.05909 33.8918   2
  11   9  -6-5.55935 30.6578   2
  11   9  -5 5.15932 26.1705   2
  11   9  -4-68.4880 51.0611   1
  11   9  -4 93.9556 52.0303   2
  11   9  -3 7.07791 34.1721   2
  11   9  -3 0.37232 28.7922   1
  11   9  -2 225.272 68.8813   1
  11   9  -2 216.163 76.7532   2
  11   9  -1-95.6962 48.6635   2
  11   9  -1-15.4627 43.0362   1
  11   9   0 132.044 59.3547   1
  11   9   0 271.691 81.8138   2
  11   9   1 301.402 81.6944   2
  11   9   1 222.942 70.3090   1
  11   9   2 197.437 70.9888   1
  11   9   2 197.594 66.2526   2
  11   9   3 79.6187 51.4685   1
  11   9   3-50.2209 42.4663   2
  11   9   4 98.0499 59.3861   1
  11   9   4 17.4444 34.4991   2
  11   9   5 118.330 52.4276   2
  11  -9   5 112.198 55.8432   3
  11   9   6 391.573 91.0344   2
  11  -9   6 227.523 89.5479   3
  11   9   7 41.7741 44.3410   2
  11  -9   7 29.0013 43.3449   3
  11   9   8-6.14629 33.9885   2
  11  -9   8 29.6849 40.5065   3
  11  -9   9 251.484 94.6438   3
  11  -9  10 324.814 105.633   3
  11  -9  11 15.9670 43.2334   3
  11  -9  12-8.18910 40.6695   3
  11  10 -13 48.5624 32.5338   2
  11  10 -12 83.0216 67.9182   2
  11  10 -11 31.4554 48.6105   2
  11  10 -10-57.6856 51.2159   2
  11  10  -9-0.31152 28.9396   2
  11  10  -8-26.7634 61.0550   2
  11  10  -7 561.830 131.674   2
  11  10  -6-56.6353 55.2006   2
  11  10  -5 318.477 98.4266   2
  11  10  -5 252.103 75.6349   1
  11  10  -4-35.5031 43.0613   2
  11  10  -4-34.9741 34.6661   1
  11  10  -3 131.751 59.7527   1
  11  10  -3 135.066 69.9408   2
  11  10  -2 101.264 53.3688   2
  11  10  -2 142.194 61.0695   1
  11  10  -1 737.151 129.019   1
  11  10  -1 383.679 95.7719   2
  11  10   0 45.6036 42.3598   2
  11  10   0 132.229 64.3969   1
  11  10   1 343.573 90.0795   1
  11  10   1 431.750 110.703   2
  11  10   2 423.553 100.433   1
  11  10   2 450.418 109.267   2
  11  10   3-61.7157 41.8642   2
  11  10   3 21.7223 42.6250   1
  11  10   4 11.4886 39.1990   2
  11 -10   4 104.614 68.4248   3
  11  10   4 98.6433 59.3911   1
  11  10   5 13.4477 33.8578   2
  11 -10   5 55.7765 54.3985   3
  11  10   6 805.395 139.696   2
  11 -10   6 725.918 156.206   3
  11  10   7 24.2738 21.5619   2
  11 -10   7 26.0683 53.8185   3
  11 -10   8-26.7236 59.0100   3
  11 -10   9-23.7339 47.7790   3
  11  11 -10-137.501 72.8859   2
  11  11  -9 57.9721 59.8395   2
  11  11  -8 25.9673 43.8889   2
  11  11  -7 0.31518 41.7706   2
  11  11  -6 54.3508 41.5975   2
  11  11  -5 36.2233 42.7204   2
  11  11  -4 178.658 69.6203   2
  11  11  -4 150.267 54.2404   1
  11  11  -3 63.8170 58.1684   1
  11  11  -3 144.577 76.3951   2
  11  11  -2 83.6995 45.6347   1
  11  11  -2 108.251 55.7331   2
  11  11  -1 65.2313 48.1435   2
  11  11  -1 23.0214 27.0769   1
  11  11   0 60.5498 51.3060   1
  11  11   0-0.26479 25.3387   2
  11  11   1 15.8895 37.9177   1
  11  11   1 14.5360 42.5076   2
  11  11   2 26.8201 37.0310   2
  11  11   2 73.3826 49.2283   1
  11  11   3 136.378 64.2231   2
  11 -11   3 72.6885 50.6717   3
  11  11   4-63.2065 44.7426   2
  11 -11   4-45.5987 49.3430   3
  11 -11   5 88.4052 64.3437   3
  11  11   5 80.0391 53.9631   2
  11  11   6 37.2728 21.4737   2
  11 -11   6 73.0331 74.4192   3
  11  11   7 195.962 79.0546   2
  11  12  -6 105.920 66.7969   2
  11  12  -5 32.1048 46.9101   2
  11  12  -4 119.038 69.8862   2
  11  12  -3 52.7386 45.0605   2
  11  12  -2 33.8227 50.5766   2
  11  12  -1-0.28579 22.3455   2
  11  12   0 22.3543 48.6717   2
  11  12   1 144.469 74.1413   2
  11  12   2 47.5326 38.3216   2
  11  12   3 108.928 53.2118   2
  11  12   4-3.42250 25.4403   2
  11  12   5-30.9567 33.8354   2
  11  12   6 136.023 62.9633   2
  12   0 -24 4.90358 44.4346   2
  12   0 -23-52.5809 47.1419   2
  12   0 -22 10.3690 51.8205   2
  12   0 -21 46.0842 44.0285   2
  12   0 -20 513.766 120.071   2
  12   0 -19-34.7914 36.9202   2
  12   0 -18 835.753 147.086   2
  12   0 -17-48.4004 53.3762   2
  12   0 -16 229.232 74.7854   2
  12   0 -15-27.8721 35.7071   2
  12   0 -14 3056.52 249.302   2
  12   0 -13-12.2896 36.6755   2
  12   0 -12 30.0454 32.0942   2
  12   0 -11 46.0652 26.9114   3
  12   0 -11-44.0544 49.9566   2
  12   0 -10 1724.41 169.546   2
  12   0 -10 1727.34 200.711   3
  12   0  -9 52.7393 52.4397   3
 -12   0   9-47.2835 32.8309   2
  12   0  -9-25.4093 27.6812   2
  12   0  -8 4.74740 26.0920   3
 -12   0   8 16.6810 27.6908   2
  12   0  -8-2.41053 24.0154   2
 -12   0   7 33.3938 37.2316   2
  12   0  -7-13.6880 33.7428   2
 -12   0   6 684.250 103.658   2
  12   0  -6 899.560 116.517   2
  12   0  -5-14.7553 28.5516   2
 -12   0   5-26.4898 26.6150   2
  12   0  -4 46.5552 28.8251   2
 -12   0   4-21.5765 31.7065   2
  12   0  -3-23.5629 31.4838   2
 -12   0   3-9.00259 19.6187   2
  12   0  -2 54.1321 28.9129   2
 -12   0   2 22.5815 17.9596   2
  12   0  -1 2.30789 15.8223   1
  12   0  -1 17.8633 28.8052   2
 -12   0   1-15.7462 29.9577   2
 -12   0   0 11.8410 18.8888   2
  12   0   0 43.5838 20.7454   1
  12   0   0 7.85473 17.6581   2
 -12   0  -1-9.03619 17.2855   2
  12   0   1 1.24212 18.6781   1
  12   0   1-11.1747 23.5160   2
  12   0   2 808.578 97.6843   2
 -12   0  -2 817.054 109.258   2
  12   0   3 24.0325 33.1303   2
 -12   0  -3-13.5784 16.6395   2
  12   0   4 3533.86 209.923   2
 -12   0  -4 3845.09 240.058   2
 -12   0  -5 19.1056 21.8701   1
 -12   0  -5-28.1356 37.8645   2
 -12   0  -6 5.54811 16.6199   1
 -12   0  -6-0.31257 21.5989   2
 -12   0  -7-26.9917 23.8843   1
  12   0   7-18.9297 34.5713   3
 -12   0  -7-10.9160 16.4518   2
 -12   0  -8 3576.35 249.012   2
  12   0   8 2794.22 212.143   3
 -12   0  -8 2882.93 173.043   1
  12   0   9-26.7063 37.6546   3
 -12   0  -9-12.4335 25.4341   1
 -12   0 -10 250.903 58.3945   1
  12   0  10 162.082 50.5762   3
 -12   0 -11 45.0615 22.6694   1
  12   0  11 72.5265 46.6257   3
  12   0  12 2957.15 237.856   3
 -12   0 -12 2252.91 187.224   1
  12   0  13 3.30478 30.4913   3
  12   0  14 437.682 98.1100   3
  12   0  15 25.8524 32.1778   3
  12   0  16 100.184 49.7219   3
  12   0  17 6.93436 41.7337   3
  12   0  18 385.181 105.756   3
  12   0  19 20.1908 31.4086   3
  12   0  20 9.56727 30.6434   3
  12   0  21 115.705 76.6068   3
  12   0  22-35.9199 47.5496   3
  12   0  23-122.982 80.5888   3
  12  -1 -25 97.9484 82.5219   2
  12  -1 -24 29.3407 46.8107   2
  12   1 -24-34.2333 45.4376   2
  12  -1 -23 36.3762 63.1449   2
  12   1 -23 11.9892 37.3629   2
  12  -1 -22 150.479 78.6761   2
  12   1 -22 446.084 124.712   2
  12  -1 -21-48.2438 50.6445   2
  12   1 -21 15.4727 50.8177   2
  12  -1 -20 57.0306 53.4531   2
  12   1 -20 117.486 65.5134   2
  12  -1 -19 146.155 71.2307   2
  12   1 -19 88.6013 46.0588   2
  12  -1 -18-20.3116 36.4671   2
  12   1 -18-28.5143 33.1630   2
  12  -1 -17 483.435 114.052   2
  12   1 -17 398.738 106.844   2
  12  -1 -16 100.364 55.0192   2
  12   1 -16 17.9207 40.2533   2
  12  -1 -15 9.08363 27.5894   2
  12   1 -15-42.2650 50.7937   2
  12  -1 -14 218.763 79.3072   2
  12   1 -14 278.955 85.6628   2
  12  -1 -13 1502.80 171.892   2
  12   1 -13 1880.78 197.637   2
  12  -1 -12 460.252 94.1094   2
  12   1 -12 433.132 95.2567   2
  12   1 -11 87.2104 51.4115   3
  12  -1 -11 10.1364 31.6677   2
  12   1 -11 20.9754 28.2856   2
  12  -1 -10 2585.79 254.099   3
  12  -1 -10 2375.11 189.103   2
  12   1 -10 2113.50 192.464   2
  12   1 -10 2440.08 225.103   3
  12   1  -9 556.328 105.333   3
  12  -1  -9 761.858 138.249   3
 -12  -1   9 523.087 98.4410   2
  12   1  -9 561.169 99.4808   2
  12  -1  -9 539.421 87.2061   2
 -12   1   8 6130.77 293.858   2
 -12  -1   8 6161.66 323.745   2
  12  -1  -8 5763.99 276.412   2
  12   1  -8 6024.79 305.930   2
  12   1  -8 6644.62 364.509   3
  12   1  -7 74.7714 47.7591   3
 -12   1   7-8.62277 31.3866   2
 -12  -1   7 47.0684 36.3846   2
  12   1  -7 42.2632 39.7521   2
  12  -1  -7 14.3674 28.9327   2
  12   1  -6 7.34363 36.2673   2
  12  -1  -6 49.0890 22.4784   2
  12   1  -6 115.239 42.7586   3
 -12   1   6 81.5409 41.3586   2
 -12  -1   6 106.030 49.2248   2
 -12   1   5 1265.84 127.283   2
 -12  -1   5 1396.56 151.343   2
  12   1  -5 1318.85 136.799   2
  12  -1  -5 1466.23 132.017   2
 -12   1   4 6350.62 284.222   2
 -12  -1   4 6148.65 305.176   2
  12   1  -4 6256.41 299.869   2
  12  -1  -4 6356.46 270.598   2
 -12   1   3 3246.98 197.512   2
 -12  -1   3 3236.21 220.703   2
  12   1  -3 3369.91 217.743   2
  12  -1  -3 3301.58 191.527   2
  12  -1  -2 2636.73 168.446   2
 -12  -1   2 2804.67 200.757   2
 -12   1   2 2720.05 178.700   2
  12   1  -2 2591.85 187.293   2
  12  -1  -1 68.8765 20.0850   1
  12   1  -1 67.0725 28.3056   2
  12  -1  -1 55.5276 23.2384   2
  12   1  -1 107.633 34.2748   1
 -12  -1   1 104.462 40.7556   2
 -12   1   1 77.7234 31.9050   2
  12  -1   0 753.153 86.6481   2
  12   1   0 702.323 93.6422   2
 -12  -1   0 709.732 104.654   2
  12  -1   0 826.073 63.9725   1
 -12   1   0 767.158 93.9478   2
  12   1   0 734.876 75.7873   1
  12   1   1 878.122 105.017   2
  12  -1   1 765.921 89.7635   2
 -12  -1  -1 813.271 113.742   2
  12   1   1 788.296 79.1759   1
 -12   1  -1 895.110 105.290   2
 -12  -1  -2 337.364 73.5480   2
  12  -1   2 215.726 48.2401   2
  12   1   2 225.828 44.9079   1
 -12   1  -2 259.756 59.8249   2
  12   1   2 251.651 56.3948   2
  12   1   3 1205.38 123.794   2
  12  -1   3 1292.99 117.613   2
 -12  -1  -3 1483.84 152.715   2
 -12   1  -3 1298.81 134.485   2
  12   1   4 176.337 53.2425   2
 -12  -1  -4 217.603 60.2443   2
 -12   1  -4 172.711 46.7798   2
  12  -1   4 262.061 53.9784   2
 -12   1  -5 2660.13 203.018   2
 -12   1  -5 3136.72 144.830   1
  12   1   5 2637.59 188.669   2
 -12  -1  -5 2872.16 220.869   2
 -12  -1  -6 5175.53 300.093   2
 -12   1  -6 4868.75 272.733   2
 -12  -1  -6 5218.91 231.594   1
  12  -1   6 4482.48 260.180   3
 -12   1  -6 5196.74 195.349   1
  12   1   6 5163.68 267.720   2
 -12  -1  -7 11813.0 345.967   1
 -12  -1  -7 11570.5 456.622   2
 -12   1  -7 11958.8 437.439   2
  12  -1   7 11289.3 418.143   3
 -12   1  -7 11367.5 313.544   1
 -12   1  -8 2698.03 213.308   2
  12  -1   8 2614.96 206.825   3
 -12   1  -8 2899.52 166.825   1
 -12  -1  -8 2830.69 177.285   1
 -12  -1  -9 152.995 42.4783   1
 -12   1  -9 196.351 46.6564   1
  12  -1   9 142.325 50.2764   3
  12   1   9 224.901 60.1717   3
 -12   1  -9 250.162 64.5933   2
 -12   1 -10 397.854 68.6740   1
  12  -1  10 264.454 77.2178   3
  12   1  10 442.618 89.2775   3
 -12  -1 -10 384.234 69.0969   1
  12  -1  11 232.089 74.1958   3
  12   1  11 260.059 68.2180   3
 -12   1 -11 213.060 55.8772   1
  12  -1  12 263.300 81.3411   3
  12   1  12 245.233 69.7749   3
  12  -1  13 1274.58 168.354   3
  12   1  13 1421.32 161.664   3
  12  -1  14 536.974 110.052   3
  12   1  14 501.192 103.083   3
  12  -1  15-28.8595 45.7002   3
  12   1  15-53.6893 44.2730   3
  12  -1  16-3.44634 34.3283   3
  12   1  16 35.5416 46.1335   3
  12  -1  17 97.6773 59.8185   3
  12   1  17 83.9355 56.0845   3
  12  -1  18 24.8741 34.9559   3
  12   1  18 111.821 53.2903   3
  12  -1  19 218.335 96.3869   3
  12   1  19 232.719 81.1187   3
  12  -1  20-108.891 81.7956   3
  12   1  20-25.8827 45.3207   3
  12  -1  21-46.4575 41.8623   3
  12   1  21-87.7710 64.0562   3
  12   1  22 145.702 84.5837   3
  12  -1  22 92.7574 59.4891   3
  12   1  23 62.3574 62.3848   3
  12   1  24 49.8109 60.2687   3
  12  -2 -25 71.7081 62.0858   2
  12  -2 -24 35.1881 39.9659   2
  12  -2 -23 12.3832 48.0622   2
  12   2 -23-105.719 68.7131   2
  12  -2 -22 39.9247 32.5649   2
  12   2 -22 130.570 74.7564   2
  12  -2 -21 267.939 87.2678   2
  12   2 -21 113.401 56.5147   2
  12  -2 -20-3.85707 43.1250   2
  12   2 -20-20.9715 47.0736   2
  12  -2 -19-36.9451 52.0709   2
  12   2 -19-62.7115 63.2586   2
  12  -2 -18 37.4364 55.4034   2
  12   2 -18 25.4636 39.6417   2
  12  -2 -17 14.2869 35.6412   2
  12   2 -17 28.6653 45.1511   2
  12  -2 -16 121.600 55.9315   2
  12   2 -16 16.4592 49.2306   2
  12   2 -15 24.5457 37.2099   2
  12  -2 -15 35.7983 45.2411   2
  12   2 -14-47.3608 48.6106   2
  12  -2 -14 40.3617 38.8603   2
  12   2 -13 1136.34 162.296   2
  12  -2 -13 839.101 120.180   2
  12  -2 -12 596.804 98.4912   2
  12   2 -12 443.223 101.316   2
  12   2 -11 91.2478 49.8390   3
  12  -2 -11 124.958 56.2314   2
  12   2 -11 93.7205 47.3761   2
  12   2 -10 422.809 90.6915   3
  12  -2 -10 312.315 64.0368   2
  12   2 -10 325.866 79.5569   2
  12   2  -9 11.3791 22.5813   3
 -12  -2   9 47.0075 37.2349   2
  12   2  -9 57.0920 42.3187   2
  12  -2  -9 4.11738 21.0072   2
 -12  -2   8 2277.32 207.681   2
  12   2  -8 2125.82 193.109   2
  12  -2  -8 2275.44 167.334   2
  12   2  -8 2154.61 193.326   3
  12  -2  -7 480.698 72.7509   2
  12   2  -7 420.212 84.3729   3
 -12   2   7 511.714 77.3544   2
 -12  -2   7 437.806 91.8140   2
  12   2  -7 523.956 93.9238   2
  12   2  -6 429.523 83.6978   2
  12  -2  -6 495.628 74.5241   2
  12   2  -6 426.835 84.9519   3
 -12   2   6 361.783 64.4189   2
 -12  -2   6 460.890 88.1590   2
  12   2  -5 77.0930 42.0657   2
  12   2  -5 82.3140 34.4554   3
  12  -2  -5 32.3667 24.3676   2
 -12   2   5 64.8570 30.4639   2
 -12  -2   5 48.7104 39.3094   2
  12   2  -4 622.908 98.9680   2
  12   2  -4 568.865 91.3796   3
  12  -2  -4 500.155 71.8149   2
 -12   2   4 528.559 77.8070   2
 -12  -2   4 504.149 96.9878   2
  12   2  -3 322.632 75.2149   2
  12  -2  -3 314.454 53.9815   2
 -12   2   3 260.688 58.6130   2
 -12  -2   3 325.357 73.8071   2
  12  -2  -2 603.219 75.4308   2
  12   2  -2 478.519 87.2803   2
 -12   2   2 493.278 69.7962   2
 -12  -2   2 464.141 86.8155   2
  12  -2  -2 526.894 40.0467   1
  12   2  -1 4.49684 22.3095   2
  12   2  -1-2.29959 20.1683   1
 -12  -2   1 41.7697 31.7628   2
 -12   2   1 19.8933 23.2310   2
  12  -2  -1 32.4879 26.5933   2
  12  -2  -1 7.43760 8.33500   1
 -12   2   0 109.240 35.4457   2
  12   2   0 154.158 38.5797   1
  12  -2   0 103.754 29.9320   2
  12   2   0 115.596 45.2424   2
 -12  -2   0 188.559 57.2093   2
  12   2   1 2281.70 181.008   2
 -12  -2  -1 2182.87 191.588   2
  12  -2   1 2355.19 145.636   2
 -12   2  -1 2110.46 154.862   2
  12   2   1 2320.60 141.955   1
 -12  -2  -2 330.142 75.7684   2
 -12   2  -2 271.600 58.5062   2
  12  -2   2 302.825 58.0213   2
  12   2   2 169.415 41.9504   1
  12   2   2 214.885 54.6102   2
  12   2   3 75.9928 35.5913   1
 -12  -2  -3 63.2492 48.1124   2
 -12   2  -3 56.1468 29.9134   2
  12   2   3 23.4868 23.8338   2
  12   2   4 147.193 48.5585   2
 -12  -2  -4 213.582 63.2649   2
 -12   2  -4 274.649 61.6999   2
  12   2   4 259.591 52.1168   3
 -12   2  -5 2201.12 107.843   1
 -12   2  -5 2098.22 168.530   2
  12   2   5 2163.83 142.980   3
  12   2   5 2130.84 174.179   2
 -12  -2  -5 2121.27 196.675   2
 -12   2  -6 290.208 43.5476   1
  12   2   6 286.997 66.8170   2
 -12  -2  -6 258.069 69.8244   2
  12   2   6 279.966 56.1390   3
 -12   2  -6 336.866 70.3824   2
 -12  -2  -7 82.3493 34.9329   1
  12   2   7 71.2131 39.7304   2
  12  -2   7 115.025 53.1919   3
 -12   2  -7 79.8349 26.1557   1
  12   2   7 85.3191 39.8240   3
 -12   2  -7 99.4122 43.1742   2
 -12  -2  -8-26.6076 31.7042   1
 -12   2  -8-0.70447 16.6450   1
 -12   2  -8 43.0499 37.9967   2
 -12   2  -9 611.662 99.9310   2
  12  -2   9 402.203 86.7559   3
 -12  -2  -9 620.499 89.2623   1
 -12   2  -9 545.149 77.3610   1
  12  -2  10 35.5682 33.6959   3
  12  -2  11 1211.98 159.748   3
  12   2  11 1163.27 135.295   3
  12  -2  12 137.004 62.0926   3
  12   2  12 119.118 42.4775   3
  12  -2  13-3.34956 41.7894   3
  12   2  13 100.123 50.4523   3
  12  -2  14 47.8597 42.8570   3
  12   2  14-11.9965 29.1164   3
  12  -2  15 23.1765 41.0667   3
  12   2  15 159.568 62.4176   3
  12  -2  16-41.9612 32.0049   3
  12   2  16 74.3512 51.6844   3
  12  -2  17 82.5797 61.7887   3
  12   2  17 18.7688 26.2882   3
  12  -2  18 3.76856 34.8256   3
  12   2  18-16.0589 30.6619   3
  12   2  19-28.1774 40.5702   3
  12  -2  19 62.8298 66.7381   3
  12   2  20 13.4702 33.1960   3
  12  -2  20 15.2192 43.5373   3
  12   2  21 116.862 67.7304   3
  12  -2  21-62.1509 45.4545   3
  12   2  22 48.2301 46.9933   3
  12  -2  22 133.750 68.0403   3
  12   2  23 73.4144 80.7145   3
  12   2  24-54.1512 51.6308   3
  12  -3 -24 4.80251 37.1109   2
  12  -3 -23 7.51734 39.2332   2
  12  -3 -22 28.5518 32.2248   2
  12   3 -22-199.265 89.5257   2
  12  -3 -21 53.7438 51.6295   2
  12   3 -21-21.3100 40.3036   2
  12  -3 -20 15.7650 24.4987   2
  12   3 -20-77.5393 70.7025   2
  12  -3 -19 125.400 64.1312   2
  12   3 -19 23.1715 35.8040   2
  12  -3 -18 221.460 71.7068   2
  12   3 -18 391.620 107.559   2
  12  -3 -17-39.7728 37.9642   2
  12   3 -17 54.1271 60.8380   2
  12  -3 -16 442.927 93.8575   2
  12   3 -16 364.107 93.0002   2
  12  -3 -15 221.478 68.4198   2
  12   3 -15 254.299 83.1342   2
  12  -3 -14 44.6394 42.9701   2
  12   3 -14 46.1488 45.3994   2
  12  -3 -13-59.5475 49.4742   2
  12   3 -13 31.3436 46.5625   2
  12  -3 -12 1573.43 153.544   2
  12   3 -12 1652.80 189.257   2
  12   3 -12 1699.91 183.109   3
  12   3 -11-11.8952 31.1341   2
  12  -3 -11 24.0030 34.0812   2
  12   3 -11 3.80016 26.9861   3
  12   3 -10 171.457 64.9700   2
  12  -3 -10 264.663 59.8801   2
  12   3 -10 300.134 77.0599   3
  12   3  -9 2.54156 24.2702   3
  12   3  -9 22.2789 37.4448   2
  12  -3  -9 42.3985 29.2146   2
  12   3  -8 452.898 83.4305   3
  12   3  -8 438.139 95.4992   2
  12  -3  -8 455.501 70.5709   2
 -12  -3   7 8599.81 415.092   2
  12   3  -7 7699.97 375.580   2
  12  -3  -7 8179.86 284.355   2
  12   3  -7 8260.34 342.772   3
  12   3  -6 564.892 103.685   2
  12   3  -6 560.313 87.0893   3
 -12   3   6 642.932 83.5287   2
 -12  -3   6 676.918 114.270   2
  12  -3  -6 752.886 83.8111   2
  12   3  -5 17.0927 31.3358   2
  12   3  -5-4.45234 16.1057   3
 -12   3   5 24.0039 19.5989   2
  12  -3  -5-6.08883 14.0354   2
 -12  -3   5-22.5616 33.3553   2
  12   3  -4 583.182 82.1871   3
  12  -3  -4 446.690 59.5799   2
  12   3  -4 440.168 87.6889   2
 -12   3   4 440.954 64.6610   2
 -12  -3   4 559.060 101.691   2
  12  -3  -3 2320.47 134.080   2
 -12   3   3 2099.98 139.511   2
 -12  -3   3 2415.76 211.056   2
  12  -3  -3 2390.24 62.2513   1
  12   3  -3 2306.19 194.600   2
  12   3  -3 2405.17 161.433   3
  12  -3  -2 155.000 34.2633   2
  12   3  -2 90.2140 33.7918   3
  12   3  -2 98.9316 45.1537   2
 -12   3   2 127.390 33.3816   2
 -12  -3   2 143.635 60.7363   2
  12   3  -1 1044.21 128.853   2
 -12  -3   1 1189.01 143.765   2
 -12   3   1 1170.25 103.779   2
  12   3  -1 1336.93 117.285   1
  12  -3  -1 1270.40 97.6013   2
  12   3   0 6.14628 24.3597   1
  12  -3   0 47.2268 21.2769   2
  12   3   0-17.2280 27.1656   2
 -12  -3   0 10.1093 28.0792   2
 -12   3   0 45.3743 23.4451   2
 -12   3  -1 296.729 56.0370   2
  12   3   1 299.073 56.0546   1
  12   3   1 298.067 70.2370   2
 -12  -3  -1 280.604 73.5596   2
  12   3   2 2121.59 180.044   2
 -12  -3  -2 2120.34 196.611   2
  12   3   2 1883.45 143.174   1
 -12   3  -2 1995.38 146.759   2
  12   3   3 4704.20 271.608   2
  12   3   3 2577.38 133.930   3
 -12  -3  -3 2673.30 226.647   2
 -12   3  -3 2478.46 169.267   2
  12   3   4 43.1814 29.5143   2
 -12  -3  -4 134.438 52.2634   2
 -12   3  -4 39.5828 22.2320   2
  12   3   4 101.581 26.7314   3
  12   3   4 79.6952 31.4060   1
  12   3   5 224.272 59.7328   2
  12   3   5 273.443 47.6953   3
 -12   3  -5 269.663 60.9240   2
 -12   3  -5 259.481 33.7657   1
 -12   3  -6 1436.67 1418.05   2
  12   3   6 1425.22 1109.55   3
 -12   3  -6 1631.02 979.002   1
 -12   3  -7-11.8859 13.8168   1
  12  -3   7-14.4730 31.9052   3
  12   3   7 20.0784 16.2160   3
 -12   3  -7 36.2038 23.0312   2
 -12   3  -8 1795.02 164.574   2
  12  -3   8 1325.63 160.814   3
 -12   3  -8 1701.67 120.131   1
  12   3   8 1610.08 126.111   3
 -12   3  -9 1026.51 129.704   2
  12  -3   9 1641.92 185.770   3
  12   3   9 1201.52 115.730   3
 -12   3 -10 304.656 71.8583   2
  12  -3  10 366.616 97.4655   3
  12  -3  11 41.3005 46.1726   3
  12  -3  12 125.590 66.4326   3
  12   3  12 89.4974 39.3450   3
  12  -3  13 112.168 63.5348   3
  12   3  13 155.616 56.7860   3
  12  -3  14 115.509 50.1725   3
  12   3  14 213.776 62.6526   3
  12  -3  15 219.385 84.8420   3
  12   3  15 320.705 79.2685   3
  12   3  16 32.3559 48.1913   3
  12  -3  16 0.27409 44.9035   3
  12   3  17-40.2580 38.3855   3
  12  -3  17-31.3456 41.9975   3
  12   3  18 43.9278 42.4328   3
  12  -3  18 227.862 87.3215   3
  12   3  19 303.956 99.5797   3
  12  -3  19 291.035 103.905   3
  12   3  20 123.567 66.3407   3
  12  -3  20 190.680 88.1161   3
  12   3  21-114.388 65.9069   3
  12  -3  21 13.4918 65.5718   3
  12   3  22 47.6291 54.0096   3
  12  -4 -22 0.48363 45.5948   2
  12  -4 -21 57.6274 46.8824   2
  12   4 -21-119.822 74.6803   2
  12  -4 -20 341.006 95.9373   2
  12   4 -20 447.762 127.976   2
  12  -4 -19-35.7794 49.8743   2
  12   4 -19-32.5039 43.9627   2
  12  -4 -18-69.4686 47.6042   2
  12   4 -18-15.8278 33.5224   2
  12  -4 -17 16.1266 24.5758   2
  12   4 -17-52.8776 63.9501   2
  12  -4 -16-7.68704 30.9904   2
  12   4 -16-30.1015 58.9898   2
  12  -4 -15 355.009 78.5233   2
  12   4 -15 211.803 67.2096   2
  12  -4 -14 59.2301 34.0939   2
  12   4 -14-45.8607 39.7437   2
  12  -4 -13 1716.21 158.351   2
  12   4 -13 1451.39 189.329   2
  12  -4 -12 466.515 78.7645   2
  12   4 -12 593.678 121.699   2
  12   4 -12 526.517 102.887   3
  12   4 -11 340.519 90.9249   2
  12  -4 -11 408.025 68.6438   2
  12   4 -11 305.932 74.5341   3
  12   4 -10 311.531 88.0247   2
  12  -4 -10 272.647 52.4653   2
  12   4 -10 287.476 68.1783   3
  12  -4  -9 551.120 73.4145   2
  12   4  -9 551.140 109.451   2
  12   4  -9 497.361 88.6385   3
  12  -4  -8 154.776 38.1944   2
  12   4  -8 219.629 59.3709   3
  12   4  -8 208.115 69.4760   2
  12  -4  -7 36.2360 18.3879   2
  12   4  -7 34.7542 23.4172   3
  12   4  -7 62.3871 46.1620   2
  12   4  -6 282.255 76.6636   2
  12  -4  -6 185.166 35.7277   2
  12   4  -6 286.181 58.7202   3
  12   4  -5 99.2130 51.4368   2
  12  -4  -5 47.4770 19.5462   2
  12   4  -5 54.3703 26.2444   3
 -12   4   4 839.520 76.0498   2
  12  -4  -4 885.410 71.2493   2
  12   4  -4 1010.48 140.404   2
  12   4  -4 950.868 95.2172   3
 -12   4   3 4619.25 180.512   2
  12  -4  -3 4725.88 161.670   2
 -12  -4   3 4830.85 311.443   2
  12   4  -3 4513.28 190.479   3
  12   4  -3 4725.03 291.049   2
  12   4  -2 315.376 47.8089   3
  12   4  -2 247.556 70.3343   2
 -12   4   2 320.842 50.5812   2
 -12  -4   2 316.209 80.2097   2
  12  -4  -2 391.441 46.8075   2
 -12   4   1 815.944 78.8632   2
  12   4  -1 859.954 101.215   1
 -12  -4   1 840.781 128.651   2
  12   4  -1 779.418 68.0443   3
  12   4  -1 869.352 124.470   2
  12   4   0 4029.01 208.437   1
  12   4   0 3757.97 253.174   2
 -12  -4   0 4160.70 286.123   2
 -12   4   0 3541.08 171.805   2
  12   4   0 3786.50 141.721   3
 -12   4  -1 418.789 58.7986   2
  12   4   1 575.270 84.5384   1
  12   4   1 295.311 74.4511   2
 -12  -4  -1 423.758 97.5453   2
  12   4   1 445.452 46.4569   3
  12   4   2 1239.24 75.2197   3
  12   4   2 1062.17 136.074   2
  12   4   2 1197.47 67.6637   3
  12   4   2 1029.06 115.394   1
 -12   4  -2 1157.85 105.890   2
 -12   4  -3 542.904 76.1522   2
  12   4   3 430.308 76.8795   1
  12   4   3 589.406 46.8346   3
  12   4   3 589.572 100.646   2
  12   4   4 144.832 44.4860   2
  12   4   4 127.723 44.1770   1
 -12   4  -4 62.6879 27.9509   2
  12   4   4 86.0024 19.2077   3
  12   4   5 245.417 64.8044   2
 -12   4  -5 279.424 59.7196   2
  12   4   5 260.454 35.1793   3
 -12   4  -5 300.172 30.2997   1
  12   4   6 71.3576 37.2296   2
 -12   4  -6 29.3641 14.5989   1
 -12   4  -6 36.9799 28.3494   2
  12   4   6 43.4983 12.6292   3
  12  -4   7 17.7881 30.8458   3
  12   4   7-14.9614 42.5115   2
 -12   4  -7-20.8239 16.4664   1
  12   4   7-13.9771 17.4401   3
 -12   4  -7-1.20956 20.9843   2
 -12   4  -8 41.1222 25.5763   2
  12   4   8 34.6534 34.0025   2
  12  -4   8 50.1306 41.6509   3
  12   4   8 28.3565 13.9440   3
 -12   4  -9 261.237 65.3407   2
  12  -4   9 126.552 63.6354   3
  12   4   9 248.550 48.2074   3
 -12   4 -10 652.759 107.725   2
  12  -4  10 855.451 142.924   3
  12   4  10 803.091 92.7309   3
  12  -4  11 992.770 158.708   3
  12   4  11 816.009 98.5756   3
  12  -4  12 81.9920 55.4241   3
  12   4  13 28.1230 28.3758   3
  12  -4  13-22.6544 28.4667   3
  12   4  14 49.5676 28.3424   3
  12  -4  14 87.8357 56.1096   3
  12   4  15 407.679 89.5889   3
  12  -4  15 406.194 115.163   3
  12   4  16 332.317 82.5717   3
  12  -4  16 494.518 123.058   3
  12   4  17 61.4811 50.3391   3
  12  -4  17 19.6138 35.5802   3
  12   4  18 4.58720 24.1069   3
  12  -4  18-52.0223 57.2737   3
  12   4  19 310.401 92.9043   3
  12  -4  19 352.070 104.441   3
  12  -4  20 155.686 77.6366   3
  12   5 -20-35.8334 50.1572   2
  12   5 -19 212.523 76.0895   2
  12  -5 -18-6.27982 32.6511   2
  12   5 -18 101.658 67.0559   2
  12  -5 -17 444.985 89.2610   2
  12   5 -17 484.999 128.218   2
  12  -5 -16 20.0220 32.6520   2
  12   5 -16 111.281 57.7069   2
  12  -5 -15 425.725 82.6265   2
  12   5 -15 331.980 110.035   2
  12  -5 -14 366.489 71.7017   2
  12   5 -14 403.664 112.810   2
  12  -5 -13 715.778 92.4217   2
  12   5 -13 582.409 127.057   2
  12   5 -12 214.162 65.7150   3
  12  -5 -12 315.472 58.1060   2
  12   5 -12 335.470 95.5074   2
  12   5 -11 12.0932 31.1155   3
  12  -5 -11 16.2123 20.5889   2
  12  -5 -10-10.2840 18.1742   2
  12   5 -10 22.3549 33.2027   3
  12   5 -10-40.6282 48.7150   2
  12  -5  -9 131.201 31.6033   2
  12   5  -9 117.161 46.0977   3
  12   5  -9 131.485 53.4958   2
  12   5  -8 1366.86 176.387   2
  12   5  -8 1375.79 135.826   3
  12  -5  -8 1379.50 84.7949   2
  12   5  -7 4.11004 36.5091   2
  12  -5  -7 42.6518 14.6884   1
  12  -5  -7 25.1751 14.3029   2
  12   5  -7-0.46262 29.6089   3
  12  -5  -6 2571.55 95.9615   2
  12   5  -6 2682.23 167.157   3
  12   5  -6 2242.88 229.619   2
  12   5  -5 37.7532 45.8755   2
  12  -5  -5 14.5884 9.15117   2
  12   5  -5 7.46492 14.6849   3
  12   5  -4 62.3836 42.3630   2
  12   5  -4 120.422 30.1804   3
  12   5  -3 7.35036 28.9248   2
  12   5  -3 44.1831 19.0855   3
 -12   5   2 318.351 38.5328   2
  12   5  -2 297.792 79.4630   2
  12   5  -2 327.559 38.0736   3
  12   5  -1-7.00916 31.0496   1
  12   5  -1 9.75277 42.8240   2
 -12   5   1 16.0453 9.63393   2
  12   5  -1 17.8460 7.68132   3
  12   5   0 1055.20 117.251   1
  12   5   0 1249.54 152.661   2
 -12   5   0 1138.05 84.7127   2
  12   5   1 977.906 134.790   2
 -12   5  -1 1103.91 90.8744   2
  12   5   1 1090.38 122.669   1
  12   5   2 1161.28 146.032   2
  12   5   2 1129.29 131.417   1
 -12   5  -2 1202.15 100.015   2
 -12   5  -3 87.2694 32.6945   2
  12   5   3 87.0805 50.4769   1
  12   5   3 118.318 49.1973   2
  12   5   4 567.080 100.402   2
  12   5   4 471.041 89.3938   1
 -12   5  -4 466.944 69.5080   2
  12   5   5 57.2716 29.8446   2
 -12   5  -5 80.7534 31.6469   2
  12   5   5 80.5563 35.1145   1
  12   5   6 69.5247 47.1640   2
 -12   5  -6 14.4907 8.19167   1
 -12   5  -6-5.02948 18.8811   2
  12   5   7 211.624 61.4388   2
  12  -5   7 248.946 76.3377   3
 -12   5  -7 301.818 64.0358   2
 -12   5  -8 14.0877 18.2725   2
  12   5   8 4.84283 9.62939   3
  12  -5   8 51.6321 47.8396   3
  12   5   9 679.926 66.7324   3
 -12   5  -9 609.534 97.0812   2
  12  -5   9 677.726 129.690   3
  12   5  10 62.6459 26.2747   3
 -12   5 -10 35.8606 24.7076   2
  12  -5  10 5.77810 39.0928   3
  12   5  11 3.08673 16.8477   3
  12  -5  11 14.0576 42.8134   3
  12   5  12-1.04543 18.6096   3
  12  -5  12 27.5285 56.8541   3
  12  -5  13 118.323 64.1400   3
  12  -5  14 163.567 65.8908   3
  12   5  15 406.775 81.9016   3
  12  -5  15 419.061 115.786   3
  12  -5  16 14.0000 39.4289   3
  12  -5  17-9.85462 35.9165   3
  12  -5  18-5.94378 37.0539   3
  12   6 -19 332.684 111.679   2
  12   6 -18 296.150 110.599   2
  12   6 -17 13.1776 42.0369   2
  12   6 -16 262.048 99.5747   2
  12   6 -15 766.458 148.623   2
  12   6 -14-29.6172 51.8750   2
  12   6 -13 74.4931 43.3383   2
  12  -6 -12 482.891 58.0623   2
  12   6 -12 489.869 101.358   3
  12   6 -12 511.914 117.067   2
  12  -6 -11 124.794 27.6534   2
  12   6 -11 168.783 55.1511   3
  12   6 -11 93.9558 40.4892   2
  12  -6 -10 334.254 47.1218   1
  12   6 -10 364.256 78.4695   3
  12   6 -10 310.825 89.4480   2
  12  -6 -10 287.503 31.3780   2
  12  -6  -9 238.846 36.8557   1
  12   6  -9 282.900 65.5781   3
  12   6  -9 362.573 95.1474   2
  12   6  -8 946.093 151.392   2
  12   6  -8 985.889 114.613   3
  12  -6  -8 979.609 63.2336   1
  12   6  -7 1884.36 145.780   3
  12   6  -7 2095.27 220.047   2
  12   6  -6 581.361 114.396   2
  12   6  -6 704.841 83.6544   3
  12   6  -5 732.625 127.920   2
  12   6  -5 752.003 76.8332   3
  12   6  -4 349.647 88.7014   2
  12   6  -4 439.432 52.9907   3
  12   6  -3 1386.70 70.0575   3
  12   6  -3 1877.62 202.943   2
  12   6  -2-13.3468 29.4192   2
  12   6  -2 9.42892 25.9451   1
  12   6  -1 856.524 130.150   2
  12   6  -1 831.715 111.828   1
 -12   6   0 861.656 50.1472   2
  12   6   0 795.915 128.082   2
  12   6   0 894.823 114.445   1
  12   6   1 49.2594 33.8657   1
  12   6   1-13.9401 42.4396   2
 -12   6  -1 15.0172 11.7797   2
 -12   6  -2-1.95365 11.3454   2
  12   6   2 7.37297 29.3331   2
  12   6   2-11.2653 25.1215   1
  12   6   3 1832.77 189.560   2
  12   6   3 1879.87 177.769   1
 -12   6  -3 1724.76 115.894   2
  12   6   4 39.4312 38.4054   2
  12   6   4-12.0517 39.6796   1
 -12   6  -4 14.0120 17.4429   2
  12   6   5 655.721 112.772   2
 -12   6  -5 638.584 79.6176   2
  12   6   5 639.836 112.612   1
  12   6   6 216.106 67.7323   2
 -12   6  -6 166.738 45.8427   2
 -12   6  -7 784.536 97.9841   2
  12  -6   7 820.283 136.998   3
  12   6   7 844.209 130.225   2
 -12   6  -8 2652.66 191.485   2
  12  -6   8 2552.04 251.032   3
  12   6   8 2857.62 235.934   2
 -12   6  -9 498.417 88.4959   2
  12  -6   9 689.058 135.160   3
 -12   6 -10 352.391 78.0109   2
  12  -6  10 323.473 102.409   3
  12  -6  11-93.1482 66.3444   3
  12  -6  12 552.188 132.786   3
  12  -6  13 49.0380 47.5653   3
  12  -6  14 465.278 109.523   3
  12  -6  15 189.660 91.9100   3
  12  -6  16 116.765 73.2902   3
  12  -6  17-34.7282 63.8022   3
  12   7 -17-64.8185 68.9774   2
  12   7 -16 52.7855 63.5812   2
  12   7 -15 48.2367 37.6958   2
  12   7 -14 772.659 155.132   2
  12   7 -13 70.7840 64.7142   2
  12   7 -12 35.8143 46.9582   2
  12   7 -11 100.360 59.1782   2
  12   7 -10 108.751 51.1731   2
  12   7  -9 565.928 124.990   2
  12   7  -9 461.940 84.2884   3
  12   7  -8 292.750 93.0794   2
  12   7  -8 184.227 50.5331   3
  12   7  -7 294.535 84.5872   2
  12   7  -7 242.964 49.9556   3
  12   7  -6 59.2805 51.1763   2
  12   7  -6-23.9578 25.2858   3
  12   7  -5 3087.48 270.648   2
  12   7  -4 111.809 59.0181   2
  12   7  -3 81.1836 46.3851   2
  12   7  -3 94.4138 49.2738   1
  12   7  -2 22.4359 24.4045   1
  12   7  -2 3.65670 29.4222   2
  12   7  -1 543.826 93.9451   1
  12   7  -1 425.737 97.0804   2
  12   7   0 3277.93 264.058   2
  12   7   0 3569.46 240.820   1
  12   7   1 130.453 50.5612   1
  12   7   1 104.852 49.8591   2
 -12   7  -2 663.132 47.2756   2
  12   7   2 644.198 116.403   2
  12   7   2 829.002 122.322   1
 -12   7  -3 65.8084 22.0220   2
  12   7   3 56.8357 38.5623   1
  12   7   3 113.901 51.5866   2
  12   7   4 1577.35 182.006   2
  12   7   4 1613.72 177.520   1
 -12   7  -4 1523.04 107.556   2
  12   7   5 429.919 97.1758   2
 -12   7  -5 391.785 59.1258   2
  12   7   5 438.167 99.7856   1
  12   7   6 136.265 52.6335   2
 -12   7  -6 227.301 50.0386   2
  12   7   7-18.5523 28.2253   2
  12  -7   7 63.9799 45.3808   3
 -12   7  -7 19.9015 22.0984   2
  12   7   8 473.553 104.154   2
  12  -7   8 391.453 103.930   3
  12  -7   9-30.0634 42.9199   3
  12  -7  10-28.8118 56.6861   3
  12  -7  11-37.7608 51.8679   3
  12  -7  12 664.311 138.322   3
  12  -7  13-19.7404 37.6046   3
  12  -7  14-3.86983 71.5702   3
  12  -7  15 104.594 70.3993   3
  12   8 -16 88.2887 50.8885   2
  12   8 -15-7.54540 42.1981   2
  12   8 -14 168.174 85.2358   2
  12   8 -13 410.502 116.547   2
  12   8 -12 292.883 105.058   2
  12   8 -11-3.00342 45.4513   2
  12   8 -10-9.24785 38.4555   2
  12   8  -9 18.7450 24.9153   2
  12   8  -8 693.317 140.452   2
  12   8  -7 0.78716 41.2084   2
  12   8  -6-19.6915 62.5311   2
  12   8  -5 90.3559 59.9400   2
  12   8  -4 151.490 65.7589   2
  12   8  -3 25.1925 29.3967   2
  12   8  -3-27.5768 44.6545   1
  12   8  -2 153.871 53.4135   1
  12   8  -2 224.462 71.2098   2
  12   8  -1-32.8768 41.6726   2
  12   8  -1 13.1598 34.4556   1
  12   8   0 183.673 64.8147   1
  12   8   0 238.110 79.6023   2
  12   8   1-39.2819 46.8357   2
  12   8   1-49.3144 52.9378   1
  12   8   2 473.545 100.284   1
  12   8   2 434.976 104.464   2
  12   8   3-8.74007 40.1101   1
  12   8   3 23.7004 27.6670   2
  12   8   4 61.8861 32.8922   2
  12   8   4 58.1636 48.9318   1
  12   8   5 136.592 58.0975   2
 -12   8  -5 138.918 34.1143   2
  12   8   5 186.568 71.7485   1
  12   8   6-11.3064 25.2276   2
 -12   8  -6-10.7416 13.7960   2
  12  -8   6 61.3235 64.3079   3
  12   8   7 311.735 84.5470   2
  12  -8   7 179.579 73.3583   3
  12   8   8 55.8649 39.3836   2
  12  -8   8-23.2716 65.9771   3
  12  -8   9 4.43254 43.8743   3
  12  -8  10-81.8094 64.9256   3
  12  -8  11 13.3129 51.6299   3
  12  -8  12 78.9873 52.9134   3
  12  -8  13 180.284 91.0724   3
  12   9 -14 86.6311 69.9671   2
  12   9 -13 58.4699 41.6664   2
  12   9 -12 243.122 103.183   2
  12   9 -11 107.293 72.2246   2
  12   9 -10 127.714 67.8340   2
  12   9  -9 65.3433 44.6764   2
  12   9  -8 312.336 103.105   2
  12   9  -7 189.788 82.1286   2
  12   9  -6 97.4054 63.7857   2
  12   9  -5-20.3160 36.8147   2
  12   9  -5-45.6715 37.4930   1
  12   9  -4 57.6490 49.8514   2
  12   9  -4 112.557 60.1128   1
  12   9  -3 8.67938 32.3552   2
  12   9  -3 48.6657 31.9771   1
  12   9  -2 134.220 49.2349   2
  12   9  -2 201.025 64.0064   1
  12   9  -1 110.612 54.3349   1
  12   9  -1 72.6799 48.6922   2
  12   9   0 44.8548 40.8163   1
  12   9   0 187.788 74.8492   2
  12   9   1 416.671 101.659   2
  12   9   1 290.108 80.4585   1
  12   9   2 44.4070 45.4873   1
  12   9   2 112.124 60.2232   2
  12   9   3 38.6768 39.4083   1
  12   9   3-7.86050 32.9300   2
  12   9   4-16.3431 37.1014   1
  12   9   4-0.45870 29.6728   2
  12  -9   5 105.870 73.1964   3
  12   9   5 92.2715 55.7489   2
  12   9   6-75.7620 47.8604   2
  12  -9   6 1.21876 33.6134   3
  12   9   7 222.390 77.6180   2
  12  -9   7 305.104 100.062   3
  12   9   8 48.6949 40.3971   2
  12  -9   8-25.4672 41.2554   3
  12  -9   9-161.077 84.1425   3
  12  -9  10-4.99261 35.7132   3
  12  -9  11-124.689 73.1950   3
  12  10 -11 45.9302 49.9767   2
  12  10 -10-36.0981 41.0450   2
  12  10  -9 117.898 78.4752   2
  12  10  -8 26.7524 36.2906   2
  12  10  -7 14.1143 44.6733   2
  12  10  -6-82.6806 49.0291   1
  12  10  -6 33.4219 54.6968   2
  12  10  -5 111.715 60.4747   1
  12  10  -5 129.216 68.8829   2
  12  10  -4 5.49343 27.0811   1
  12  10  -4 6.45228 27.1769   2
  12  10  -3 162.899 74.2868   2
  12  10  -3 319.034 82.3252   1
  12  10  -2 88.2118 50.0654   1
  12  10  -2 62.4939 52.3011   2
  12  10  -1 59.5702 39.3182   1
  12  10  -1 0.26260 23.8391   2
  12  10   0 90.2133 52.6414   2
  12  10   0 75.3632 37.2101   1
  12  10   1-93.9517 61.3152   1
  12  10   1-34.8959 42.1928   2
  12  10   2-12.4689 30.5513   1
  12  10   2 3.25961 30.4931   2
  12  10   3 481.487 109.042   2
  12  10   3 597.648 120.714   1
  12  10   4 36.5394 47.2292   2
  12 -10   4 12.6214 45.9527   3
  12  10   4-11.3112 28.3841   1
  12  10   5-24.9149 35.6153   2
  12 -10   5-95.0444 69.8559   3
  12  10   6 11.5680 31.5723   2
  12 -10   6 19.7847 34.6486   3
  12  10   7 4.91922 29.9355   2
  12 -10   7 64.7725 49.8994   3
  12  10   8-4.93482 36.9996   2
  12 -10   8 43.7918 57.4128   3
  12  11  -8-54.7718 50.2609   2
  12  11  -7 44.3585 28.0636   2
  12  11  -6-15.4817 32.4824   2
  12  11  -5 18.3977 26.3122   2
  12  11  -4 95.4534 57.0306   2
  12  11  -3 18.7804 40.4216   2
  12  11  -2 1.42836 49.1740   2
  12  11  -1 5.07811 35.2063   2
  12  11   0 18.8740 23.8120   2
  12  11   1-46.7553 56.3423   2
  12  11   2 29.3086 32.7900   2
  12  11   3 90.0689 54.8449   2
  12 -11   3 19.5280 34.8768   3
  12  11   4 6.01966 35.9179   2
  12  11   5-115.507 58.2521   2
  12  11   6 33.7473 34.3567   2
  12  11   7 79.0625 66.0215   2
  12  12  -3-19.4121 30.2884   2
  12  12  -2-145.240 69.2418   2
  12  12  -1 69.3516 50.7017   2
  12  12   0 93.2120 50.7622   2
  12  12   1-15.9849 44.7184   2
  12  12   2-25.3619 32.6556   2
  12  12   3 54.6811 44.1766   2
  12  12   4 0.27667 56.5099   2
  13   0 -24 47.5466 59.9235   2
  13   0 -23-66.2174 52.9744   2
  13   0 -22 121.368 82.4908   2
  13   0 -21 167.160 80.5360   2
  13   0 -20 14.9790 48.7160   2
  13   0 -19-83.0226 52.5016   2
  13   0 -18 47.4303 61.9369   2
  13   0 -17 100.062 63.4559   2
  13   0 -16-60.4791 56.4088   2
  13   0 -15 133.702 55.1905   2
  13   0 -14-44.2958 52.6979   2
  13   0 -13 406.454 91.5653   2
  13   0 -12-39.9860 34.3693   2
  13   0 -11 977.446 131.016   2
  13   0 -10-4.43058 28.0779   3
  13   0 -10-6.59034 33.1690   2
  13   0  -9 1227.22 172.294   3
 -13   0   9 1112.21 136.908   2
  13   0  -9 1106.86 134.811   2
  13   0  -8-15.7962 43.3161   3
 -13   0   8 6.59552 30.5506   2
  13   0  -8-6.10321 30.3634   2
 -13   0   7 2328.29 196.830   2
  13   0  -7 2437.47 191.419   2
  13   0  -6 2.28208 21.8361   2
 -13   0   6-10.2134 25.4402   2
  13   0  -5 726.701 100.092   2
 -13   0   5 882.138 120.896   2
  13   0  -4-24.3089 35.5605   2
 -13   0   4 23.5366 30.7683   2
  13   0  -3 472.123 80.5738   2
 -13   0   3 555.077 92.3191   2
  13   0  -2 10.5461 21.8848   2
 -13   0   2-36.5454 34.5009   2
  13   0  -1 320.615 68.0187   2
 -13   0   1 299.534 68.1544   2
  13   0  -1 376.187 49.6627   1
  13   0   0 15.3794 28.9107   2
  13   0   0 16.1211 15.5220   1
 -13   0   0-14.9874 24.3439   2
  13   0   1 1179.42 121.108   2
  13   0   1 1075.01 90.6291   1
 -13   0  -1 1078.09 127.406   2
  13   0   2 2.08568 29.6875   2
 -13   0  -2-1.52376 22.4288   2
  13   0   3 255.084 60.4529   2
 -13   0  -3 280.139 69.4959   2
 -13   0  -4 34.6648 43.2770   2
  13   0   4-18.2214 30.3726   2
 -13   0  -5 219.316 60.7291   2
  13   0   5 131.487 46.0504   2
 -13   0  -6-19.2741 28.1429   2
  13   0   6 0.42164 26.3669   3
 -13   0  -6-15.8220 20.7135   1
 -13   0  -7 59.7473 27.8299   1
  13   0   7 74.6674 39.0484   3
 -13   0  -7 27.8121 29.0634   2
 -13   0  -8-21.0563 26.8076   1
  13   0   8 75.0996 42.9666   3
 -13   0  -9-20.4026 22.6352   1
  13   0   9 34.3544 40.3137   3
  13   0  10 69.8561 39.1514   3
 -13   0 -10 16.2263 19.3506   1
  13   0  11 50.1811 46.8810   3
 -13   0 -11 69.7899 33.9705   1
  13   0  12 0.95768 43.9722   3
  13   0  13 1945.40 1996.11   3
  13   0  14 9.94052 27.1271   3
  13   0  15 476.126 111.998   3
  13   0  16 18.2715 38.5444   3
  13   0  17 325.464 104.556   3
  13   0  18 119.080 63.4774   3
  13   0  19 1340.78 201.530   3
  13   0  20 3.94502 41.5683   3
  13   0  21 485.161 132.157   3
  13   0  22 61.1820 65.0235   3
  13   0  23 1.86262 42.2281   3
  13  -1 -24-62.8676 54.1353   2
  13  -1 -23-126.899 66.6402   2
  13   1 -23-17.6245 44.3942   2
  13   1 -22 184.511 79.4244   2
  13  -1 -22 116.470 69.3776   2
  13  -1 -21-7.29780 27.7815   2
  13   1 -21-11.9193 43.7939   2
  13   1 -20 78.7264 69.1718   2
  13  -1 -20 14.6244 35.3065   2
  13  -1 -19 28.4458 53.7256   2
  13   1 -19 132.750 53.8851   2
  13  -1 -18 400.130 101.548   2
  13   1 -18 314.189 101.262   2
  13  -1 -17 143.838 61.1852   2
  13   1 -17 66.7778 43.4299   2
  13  -1 -16-60.2678 43.0727   2
  13   1 -16-15.2621 49.1030   2
  13  -1 -15 194.386 72.1100   2
  13   1 -15 116.520 64.5694   2
  13  -1 -14-39.4202 37.9355   2
  13   1 -14 5.84433 36.3247   2
  13  -1 -13 3779.92 267.527   2
  13   1 -13 3681.79 280.215   2
  13  -1 -12-0.17261 33.9254   2
  13   1 -12 17.9489 39.6933   2
  13  -1 -11 515.124 96.3948   2
  13   1 -11 611.426 109.052   2
  13   1 -10-24.9026 45.9844   3
 -13  -1  10-12.1098 33.9890   2
  13   1 -10-23.7894 45.0519   2
  13  -1 -10-7.82115 22.4070   2
 -13  -1   9 1206.08 153.507   2
  13   1  -9 1134.05 142.915   2
  13  -1  -9 1225.79 136.402   2
  13   1  -9 1323.56 173.937   3
  13   1  -8 2592.39 240.291   3
 -13   1   8 2390.66 190.901   2
 -13  -1   8 2453.68 215.146   2
  13   1  -8 2313.34 198.916   2
  13  -1  -8 2339.10 188.306   2
  13  -1  -7 112.337 46.5227   2
  13   1  -7 76.7499 48.8325   3
 -13   1   7 91.0311 37.3334   2
 -13  -1   7 79.2823 46.3330   2
  13   1  -7 52.4666 34.2730   2
  13   1  -6 190.203 64.7953   2
  13  -1  -6 239.906 60.0983   2
 -13   1   6 122.530 44.8379   2
 -13  -1   6 157.686 60.7376   2
  13  -1  -5 598.542 88.6927   2
 -13   1   5 793.767 104.743   2
 -13  -1   5 674.071 108.600   2
  13   1  -5 783.721 112.305   2
 -13   1   4 1233.00 130.518   2
 -13  -1   4 1326.21 149.519   2
  13   1  -4 1048.13 130.205   2
  13  -1  -4 1212.72 124.959   2
  13   1  -3 274.383 66.6156   2
  13  -1  -3 192.176 50.2598   2
 -13   1   3 220.082 53.3579   2
 -13  -1   3 255.539 69.6155   2
  13  -1  -2 610.065 58.2237   1
  13   1  -2 589.608 96.9634   2
  13  -1  -2 583.811 82.2329   2
 -13   1   2 588.034 86.3596   2
 -13  -1   2 649.377 101.135   2
  13   1  -1 772.552 106.775   2
  13   1  -1 875.157 83.5112   1
  13  -1  -1 785.711 95.2086   2
 -13  -1   1 808.233 116.240   2
 -13   1   1 742.089 100.251   2
  13  -1  -1 787.669 64.4391   1
  13  -1   0 636.284 86.0641   2
  13  -1   0 536.290 56.6132   1
 -13   1   0 550.809 88.8686   2
  13   1   0 608.720 95.6914   2
  13   1   0 571.673 68.0045   1
 -13  -1   0 549.785 94.9399   2
  13   1   1 1849.72 161.553   2
  13  -1   1 1848.26 145.689   2
 -13  -1  -1 1777.51 172.820   2
  13   1   1 1724.48 119.810   1
 -13   1  -1 1877.27 163.266   2
 -13  -1  -2 52.2997 34.9004   2
  13   1   2 52.0514 23.5475   1
 -13   1  -2 53.2319 30.8227   2
  13  -1   2 70.0113 36.6568   2
  13   1   2 132.467 45.7864   2
  13   1   3 745.987 102.761   2
 -13  -1  -3 698.056 109.237   2
  13  -1   3 709.641 94.7911   2
 -13   1  -3 658.513 100.222   2
  13   1   4 1342.75 136.424   2
 -13  -1  -4 1708.06 173.313   2
  13  -1   4 1334.20 127.161   2
 -13   1  -4 1639.15 161.896   2
 -13   1  -5 1410.40 151.642   2
  13   1   5 1454.09 147.046   2
 -13  -1  -5 1374.19 158.835   2
 -13  -1  -6 178.578 57.5784   2
  13   1   6 153.080 52.9118   2
 -13   1  -6 157.267 55.9705   2
 -13   1  -6 134.614 32.5291   1
 -13   1  -7 1401.73 157.683   2
 -13  -1  -7 1533.06 130.787   1
  13  -1   7 1268.26 144.327   3
 -13   1  -7 1232.22 103.828   1
 -13   1  -8 317.625 53.4534   1
 -13  -1  -8 329.969 61.8918   1
  13  -1   8 230.463 68.1535   3
  13   1   8 319.658 75.1938   3
 -13   1  -8 304.624 72.8113   2
  13  -1   9 746.154 122.801   3
  13   1   9 720.828 109.064   3
 -13   1  -9 719.578 90.1471   1
 -13  -1  -9 774.572 98.0171   1
 -13  -1 -10 3.50367 16.2591   1
 -13   1 -10 22.4006 21.6712   1
  13  -1  10 2.64978 37.2070   3
  13   1  10-23.6119 38.4677   3
 -13   1 -11 25.6101 24.8398   1
  13  -1  11 92.9038 55.8665   3
  13   1  11 101.056 50.5645   3
 -13   1 -12 28.5089 26.5483   1
  13  -1  12 45.0456 35.4391   3
  13   1  12-2.27238 26.5061   3
  13  -1  13 913.026 146.320   3
  13   1  13 859.991 132.177   3
  13  -1  14-41.4603 49.6438   3
  13   1  14 70.3553 50.2402   3
  13  -1  15 47.3511 35.0929   3
  13   1  15 167.319 63.8632   3
  13  -1  16-8.85723 45.9342   3
  13   1  16-22.5001 38.9602   3
  13  -1  17 35.8451 46.6225   3
  13   1  17 2.64342 34.3842   3
  13  -1  18 61.8136 51.5169   3
  13   1  18 62.6709 47.5503   3
  13  -1  19 282.165 102.021   3
  13   1  19 201.866 78.8264   3
  13  -1  20 237.184 96.0204   3
  13   1  20 61.7371 53.0348   3
  13  -1  21 26.4878 50.6341   3
  13   1  21 140.621 67.5585   3
  13   1  22 306.505 113.084   3
  13  -1  22 309.665 101.856   3
  13   1  23 83.0744 70.9166   3
  13  -2 -25-25.4677 52.4672   2
  13  -2 -24 144.488 76.4892   2
  13  -2 -23-16.3551 37.2706   2
  13  -2 -22 89.8745 61.7769   2
  13   2 -22-163.388 80.6708   2
  13  -2 -21 53.5926 41.3735   2
  13   2 -21 84.6183 69.2337   2
  13  -2 -20 0.25020 32.9884   2
  13   2 -20-18.5518 63.7695   2
  13  -2 -19 40.1316 27.6777   2
  13   2 -19-13.9356 46.4807   2
  13  -2 -18-39.3385 41.1991   2
  13   2 -18-36.0366 55.2394   2
  13  -2 -17 178.370 72.5021   2
  13   2 -17 269.894 87.3483   2
  13  -2 -16 25.6730 35.5187   2
  13   2 -16 15.6427 31.2240   2
  13  -2 -15 396.001 90.4953   2
  13   2 -15 299.107 83.7221   2
  13  -2 -14 62.0219 34.2269   2
  13   2 -14 61.2155 50.1305   2
  13  -2 -13 827.383 121.781   2
  13   2 -13 912.938 142.703   2
  13  -2 -12 37.3956 29.9829   2
  13   2 -12 64.0799 50.6407   2
  13   2 -11 232.724 72.1422   3
  13   2 -11 270.607 79.0723   2
  13  -2 -11 257.024 72.0588   2
  13   2 -10 121.840 54.7651   3
  13   2 -10-5.28877 38.6765   2
  13  -2 -10 66.9500 41.2667   2
  13   2  -9 594.431 112.240   3
  13   2  -9 637.617 109.258   2
  13  -2  -9 578.826 89.9284   2
  13  -2  -8 434.977 75.4581   2
  13   2  -8 528.977 97.7698   3
 -13  -2   8 468.095 100.904   2
  13   2  -8 434.055 92.0449   2
  13   2  -7 716.699 120.394   2
  13   2  -7 679.428 111.586   3
 -13   2   7 671.179 90.7906   2
 -13  -2   7 649.186 118.011   2
  13  -2  -7 712.762 93.8648   2
 -13   2   6 1831.51 153.041   2
 -13  -2   6 1787.11 184.096   2
  13   2  -6 1698.26 173.087   2
  13  -2  -6 2037.16 154.108   2
  13   2  -6 1910.13 181.177   3
  13   2  -5 10.3238 24.0775   2
  13   2  -5-6.15785 25.3567   3
  13  -2  -5 0.76212 22.5434   2
 -13   2   5-11.6397 25.6193   2
 -13  -2   5-20.2398 32.0015   2
  13  -2  -4 577.062 79.2207   2
  13   2  -4 734.891 113.012   2
 -13   2   4 499.152 78.4811   2
 -13  -2   4 773.370 118.453   2
  13   2  -3-14.2684 27.6983   2
  13  -2  -3-12.1887 16.9757   2
 -13   2   3 20.2496 16.3815   2
 -13  -2   3 5.07919 27.1133   2
  13  -2  -2 832.940 93.1029   2
 -13   2   2 849.217 100.633   2
 -13  -2   2 994.814 132.489   2
  13  -2  -2 898.724 57.1875   1
  13   2  -2 780.311 113.787   2
  13   2  -1 1335.29 146.842   2
  13  -2  -1 1429.98 118.199   2
  13   2  -1 1531.82 118.652   1
 -13  -2   1 1300.60 152.851   2
 -13   2   1 1345.58 126.152   2
  13   2   0 2286.19 188.295   2
  13  -2   0 2639.09 161.765   2
 -13  -2   0 2780.25 223.506   2
 -13   2   0 2716.46 182.330   2
  13   2   0 2693.86 155.924   1
 -13  -2  -1 210.017 63.2514   2
  13   2   1 147.130 43.2287   1
 -13   2  -1 217.422 56.2157   2
  13  -2   1 198.185 44.5978   2
  13   2   1 109.979 47.3998   2
 -13  -2  -2 42.4582 34.5114   2
 -13   2  -2 115.139 40.6700   2
  13  -2   2 76.3557 30.3605   2
  13   2   2 38.7991 26.9081   1
  13   2   2 49.4392 34.6335   2
  13   2   3 1233.39 136.917   2
  13   2   3 1124.53 112.538   1
 -13  -2  -3 1260.22 154.192   2
 -13   2  -3 1095.62 121.252   2
 -13   2  -4 1216.37 132.586   2
  13   2   4 1191.18 109.994   3
  13   2   4 1000.82 125.477   2
 -13  -2  -4 1282.00 156.370   2
  13   2   5 102.882 44.6236   2
 -13   2  -5 92.3916 40.8326   2
  13   2   5 13.8372 16.7333   3
 -13   2  -6 299.196 44.2935   1
  13   2   6 274.440 66.2283   2
 -13   2  -6 312.117 72.2211   2
  13   2   6 323.429 61.3498   3
  13   2   7 458.642 89.8218   2
  13  -2   7 473.027 97.9687   3
 -13   2  -7 467.299 87.9807   2
 -13   2  -7 459.405 59.7192   1
 -13  -2  -8 44.1430 27.7153   1
  13  -2   8 51.1129 31.0078   3
 -13   2  -8 70.5955 26.7929   1
 -13   2  -8 84.3325 41.6920   2
  13  -2   9 2406.35 224.447   3
 -13   2  -9 2593.16 163.446   1
 -13   2 -10 19.4514 19.6500   1
  13  -2  10 109.877 55.9221   3
  13   2  10 61.6784 34.4277   3
  13  -2  11 212.212 72.1669   3
  13   2  11 302.980 71.5849   3
 -13   2 -11 175.290 46.5992   1
  13  -2  12 38.5473 35.5198   3
  13   2  12 55.2844 31.3731   3
 -13   2 -12 16.5946 21.8833   1
  13  -2  13 221.765 75.4486   3
  13   2  13 56.2441 33.0579   3
  13  -2  14 498.159 118.592   3
  13   2  14 425.650 92.6870   3
  13  -2  15 147.174 70.2934   3
  13   2  15 64.6407 38.2025   3
  13  -2  16 170.105 65.7481   3
  13   2  16 126.357 58.2790   3
  13  -2  17 165.764 80.8989   3
  13   2  17 188.398 70.4807   3
  13  -2  18 2.67351 44.3228   3
  13   2  18 7.40052 29.6686   3
  13  -2  19 105.225 82.0888   3
  13   2  19-9.86577 26.3608   3
  13   2  20 16.9606 31.2633   3
  13  -2  20 94.9082 69.2259   3
  13   2  21-112.898 63.2505   3
  13  -2  21 87.1632 73.3475   3
  13   2  22-4.20042 54.2779   3
  13   2  23-29.6465 44.2228   3
  13  -3 -24 29.4666 39.7407   2
  13  -3 -23 4.82262 31.5910   2
  13  -3 -22 25.8359 33.9926   2
  13   3 -22-114.461 70.3190   2
  13  -3 -21 44.0388 56.5401   2
  13   3 -21 41.5367 50.4909   2
  13  -3 -20-43.3166 60.1940   2
  13   3 -20 4.16629 40.1037   2
  13  -3 -19-191.761 70.7137   2
  13   3 -19-40.7641 34.8418   2
  13  -3 -18-6.77521 32.6945   2
  13   3 -18-9.07594 49.7367   2
  13  -3 -17-27.1079 38.7406   2
  13   3 -17-38.5020 51.0247   2
  13  -3 -16 38.4002 32.6001   2
  13   3 -16-56.6149 59.8668   2
  13  -3 -15 355.540 80.0270   2
  13   3 -15 363.001 102.757   2
  13  -3 -14 749.897 114.464   2
  13   3 -14 702.467 138.260   2
  13  -3 -13 54.6663 29.3819   2
  13   3 -13 41.3354 39.0034   2
  13  -3 -12 3446.77 227.845   2
  13   3 -12 3211.53 268.944   2
  13   3 -11 1418.59 175.137   2
  13  -3 -11 1301.64 137.112   2
  13   3 -11 1466.65 168.081   3
  13   3 -10 173.060 60.7137   2
  13  -3 -10 156.224 51.5265   2
  13   3 -10 227.869 68.4717   3
  13   3  -9 1494.45 175.816   2
  13  -3  -9 1378.19 130.524   2
  13   3  -9 1401.16 153.796   3
  13   3  -8 45.1541 23.7967   3
  13  -3  -8 96.1255 34.5103   2
  13   3  -8 62.3181 46.1731   2
  13   3  -7 81.5717 54.3497   2
  13   3  -7 48.3861 36.5242   3
  13  -3  -7 64.6951 30.7015   2
 -13   3   6 1874.42 143.400   2
  13   3  -6 1626.12 178.569   2
  13   3  -6 1965.75 173.055   3
  13  -3  -6 1712.96 129.540   2
  13   3  -5 488.615 81.9798   3
  13   3  -5 419.848 93.5539   2
 -13   3   5 537.286 75.8798   2
  13  -3  -5 474.518 68.6043   2
  13   3  -4 23.5559 16.7933   3
  13   3  -4-46.6874 29.3765   2
 -13   3   4 36.5498 19.2903   2
 -13  -3   4 14.4254 24.2753   2
  13  -3  -4 17.0656 23.9965   2
 -13   3   3 1325.53 118.912   2
  13  -3  -3 1434.43 111.291   2
 -13  -3   3 1533.26 173.123   2
  13  -3  -3 1657.92 54.3747   1
  13   3  -3 1249.31 147.949   2
  13   3  -3 1577.31 139.097   3
  13  -3  -2 189.359 39.7209   2
  13   3  -2 217.392 47.3755   3
  13   3  -2 289.615 70.1236   2
 -13   3   2 235.321 53.9282   2
 -13  -3   2 222.065 68.0032   2
  13  -3  -1 267.046 47.7955   2
  13   3  -1 390.787 66.3606   1
  13   3  -1 238.987 64.6166   2
 -13  -3   1 273.587 74.6631   2
 -13   3   1 276.281 54.2271   2
  13   3   0 367.050 77.1144   2
  13  -3   0 486.369 65.8772   2
 -13  -3   0 402.576 90.4673   2
  13   3   0 458.039 71.7345   1
 -13   3   0 511.398 76.5006   2
  13   3   1 524.644 77.5304   1
  13   3   1 634.264 104.133   2
 -13   3  -1 567.966 81.1733   2
 -13  -3  -1 629.394 113.776   2
 -13   3  -2 47.1245 25.9588   2
  13   3   2-4.27595 27.4446   1
  13   3   2 34.2163 32.4434   2
  13   3   3 324.610 66.1736   1
 -13   3  -3 447.845 73.2951   2
  13   3   3 483.568 61.6447   3
  13   3   3 536.239 94.8775   2
  13   3   4-21.1780 26.2360   2
  13   3   4 2.17105 14.9750   3
 -13   3  -4 13.5146 17.1546   2
  13   3   4-7.44643 21.9128   1
  13   3   5 204.168 59.2187   2
 -13   3  -5 60.0988 30.8885   2
  13   3   5 56.6802 26.3611   3
 -13   3  -6 2879.77 207.032   2
  13   3   6 2934.54 162.171   3
  13   3   6 2700.81 211.559   2
 -13   3  -6 3046.58 128.112   1
  13   3   7 186.497 62.2632   2
  13  -3   7 165.304 61.7754   3
  13   3   7 219.138 47.6843   3
 -13   3  -7 203.335 56.7964   2
 -13   3  -7 218.557 40.6322   1
 -13   3  -8 295.905 50.9403   1
  13   3   8 219.627 64.2383   2
  13  -3   8 219.019 71.9678   3
  13   3   8 281.839 54.2659   3
 -13   3  -8 312.577 73.8845   2
 -13   3  -9 4.38169 15.9623   1
  13  -3   9-33.1821 46.8021   3
 -13   3  -9-8.43410 20.1669   2
 -13   3 -10 1061.02 107.923   1
  13  -3  10 1134.45 159.698   3
  13  -3  11 114.659 61.3821   3
  13  -3  12 75.8949 47.0600   3
  13   3  12 192.183 52.5055   3
  13  -3  13 12.6526 43.5934   3
  13   3  13 10.2255 24.9294   3
  13  -3  14 324.195 95.6726   3
  13   3  14 525.652 99.4096   3
  13  -3  15 56.4848 67.3751   3
  13   3  15-4.88353 28.0185   3
  13   3  16-36.4667 39.9528   3
  13  -3  16 45.4941 44.7340   3
  13   3  17 48.9265 35.2144   3
  13  -3  17 27.3241 38.7668   3
  13   3  18 131.088 66.1091   3
  13  -3  18 127.935 59.6418   3
  13   3  19-74.4006 55.3996   3
  13  -3  19 32.9670 53.5790   3
  13   3  20 32.6131 30.6994   3
  13  -3  20 29.9761 35.6323   3
  13   3  21-55.5075 47.8774   3
  13  -4 -21-20.2186 49.1296   2
  13   4 -21-57.3706 58.9729   2
  13  -4 -20 450.706 106.282   2
  13   4 -20 451.132 132.606   2
  13  -4 -19 21.9646 31.5812   2
  13   4 -19-23.7914 38.9224   2
  13  -4 -18 107.129 56.7929   2
  13   4 -18 94.9035 73.3812   2
  13  -4 -17 144.756 61.7631   2
  13   4 -17-28.1479 52.0938   2
  13  -4 -16 64.1175 36.7599   2
  13   4 -16 249.463 83.6288   2
  13  -4 -15-4.25869 26.7877   2
  13   4 -15 109.903 66.5120   2
  13  -4 -14 137.580 51.8843   2
  13   4 -14 53.4920 45.3390   2
  13  -4 -13 1550.60 149.462   2
  13   4 -13 1654.47 205.214   2
  13   4 -12 97.9009 56.2585   2
  13  -4 -12 119.445 50.5172   2
  13   4 -11 283.777 80.5558   2
  13   4 -11 283.176 73.5523   3
  13  -4 -11 203.535 49.7643   2
  13   4 -10-80.4587 65.6787   2
  13   4 -10 42.5741 36.8218   3
  13  -4 -10 28.1510 25.0324   2
  13  -4  -9-16.6195 20.5343   2
  13   4  -9 29.9501 42.0553   2
  13   4  -9-22.1037 35.5494   3
  13  -4  -8 438.906 64.4212   2
  13   4  -8 320.790 68.6136   3
  13   4  -8 441.480 96.1870   2
  13   4  -7-7.59105 28.0515   2
  13  -4  -7-5.12233 20.9311   2
  13   4  -7 22.6077 32.5744   3
  13   4  -6-24.5900 43.2976   2
  13  -4  -6 14.0401 17.5430   2
  13   4  -6 3.25589 17.6682   3
  13  -4  -5 1556.46 103.831   2
  13   4  -5 1596.95 176.958   2
  13   4  -5 1472.89 127.407   3
  13  -4  -4 243.604 40.4295   2
  13   4  -4 315.085 58.3847   3
  13   4  -4 311.743 82.1786   2
 -13   4   4 264.103 50.5218   2
  13   4  -3 243.472 48.4068   3
  13  -4  -3 266.332 41.8178   2
  13   4  -3 262.526 74.4186   2
 -13   4   3 274.172 50.8238   2
  13   4  -2 106.829 31.3821   3
  13   4  -2 120.548 56.5050   2
  13  -4  -2 109.247 26.9402   2
 -13   4   2 129.352 34.7365   2
  13   4  -1 32.5371 13.9511   3
  13   4  -1 66.3424 31.4861   1
  13   4  -1 14.6977 30.4235   2
 -13   4   1 43.5767 22.9188   2
  13   4   0 916.740 129.651   2
 -13   4   0 715.039 82.0324   2
  13   4   0 697.068 93.6177   1
  13   4   0 775.555 72.0730   3
 -13   4  -1-28.2302 21.9514   2
  13   4   1 14.1578 11.0597   3
  13   4   1 26.8111 37.0981   1
  13   4   1-36.7549 28.4096   2
  13   4   2 1167.18 141.354   2
  13   4   2 1179.04 74.4121   3
  13   4   2 1054.18 116.000   1
 -13   4  -2 1099.08 108.664   2
 -13   4  -3 109.066 33.5923   2
  13   4   3 138.331 51.7670   1
  13   4   3 133.829 25.3509   3
  13   4   3 174.452 55.3443   2
 -13   4  -4 1437.26 134.453   2
  13   4   4 1537.21 165.317   2
  13   4   4 1472.08 84.3850   3
  13   4   4 1555.82 150.776   1
  13   4   5 21.9337 28.1061   2
 -13   4  -5 21.4253 20.4634   2
  13   4   5 26.9693 16.2057   3
  13   4   6 402.666 84.1616   2
  13   4   6 387.899 50.1174   3
 -13   4  -6 396.707 73.3710   2
 -13   4  -6 407.953 40.8210   1
 -13   4  -7 1026.88 125.180   2
  13  -4   7 1046.60 150.829   3
 -13   4  -7 1019.01 75.5558   1
  13   4   7 1030.07 85.4296   3
  13   4   7 1069.91 138.846   2
 -13   4  -8 1353.62 149.265   2
  13  -4   8 1332.15 174.523   3
 -13   4  -8 1346.37 98.3378   1
  13   4   8 1194.69 97.8845   3
  13   4   8 1287.59 157.574   2
  13  -4   9 31.0299 41.8130   3
 -13   4  -9 47.2282 19.6322   1
  13   4   9 20.0543 14.7791   3
 -13   4  -9 2.50130 22.6208   2
  13  -4  10 836.972 137.915   3
  13   4  10 892.127 98.8373   3
  13  -4  11 416.226 115.973   3
  13  -4  12-31.7738 49.5592   3
  13   4  13 35.2255 39.8127   3
  13  -4  13-51.3996 57.3464   3
  13   4  14 104.025 46.8235   3
  13  -4  14 13.7158 36.4914   3
  13   4  15-8.64350 29.4137   3
  13  -4  15 15.0843 51.9302   3
  13   4  16 298.798 76.7982   3
  13  -4  16 281.197 91.4513   3
  13   4  17 23.1207 27.8777   3
  13  -4  17-40.1629 52.6014   3
  13   4  18 41.8493 25.6989   3
  13  -4  18 70.0080 54.8437   3
  13  -4  19 351.988 108.092   3
  13   5 -19 161.373 69.8543   2
  13   5 -18 16.2272 42.2900   2
  13   5 -17 65.9662 64.6958   2
  13  -5 -16 145.175 50.8603   2
  13   5 -16 140.376 66.7634   2
  13  -5 -15 137.551 46.9516   2
  13   5 -15 123.883 48.7525   2
  13  -5 -14 58.0624 36.1034   2
  13   5 -14 27.0553 41.6190   2
  13   5 -13-18.9857 51.4137   2
  13  -5 -13 72.7302 31.7538   2
  13   5 -12 23.1493 35.2647   3
  13   5 -12 76.2172 61.6514   2
  13  -5 -12 12.7718 22.8833   2
  13  -5 -11 6.41624 17.7012   2
  13   5 -11 64.5347 44.0353   3
  13   5 -11 50.7302 39.2704   2
  13  -5 -10 101.786 30.8357   2
  13   5 -10 153.632 51.3058   3
  13   5 -10 104.765 50.7710   2
  13   5  -9 606.841 97.1692   3
  13  -5  -9 697.037 69.6586   2
  13   5  -9 650.580 128.549   2
  13   5  -8 766.071 132.309   2
  13  -5  -8 746.949 65.5890   2
  13   5  -8 840.856 109.675   3
  13   5  -7 0.86447 38.9683   2
  13  -5  -7 19.4767 9.12286   1
  13  -5  -7 8.74178 7.16267   2
  13   5  -7 32.0755 25.8283   3
  13  -5  -6 20.0013 9.33249   2
  13   5  -6 37.2075 32.9945   2
  13   5  -6 53.3177 28.3339   3
  13   5  -5-31.4019 30.8654   2
  13  -5  -5-5.52094 8.40560   2
  13   5  -5 0.64398 13.4154   3
  13   5  -4 265.069 79.1037   2
  13   5  -4 199.374 39.3453   3
  13   5  -3 8.40725 35.0436   2
 -13   5   3 43.6045 14.9036   2
  13   5  -3 62.2496 20.8757   3
 -13   5   2 608.668 60.8975   2
  13   5  -2 612.379 114.857   2
  13   5  -2 783.315 104.872   1
  13   5  -2 542.001 52.4286   3
  13   5  -1 244.441 68.4375   2
 -13   5   1 267.483 43.1413   2
  13   5  -1 223.796 28.1130   3
  13   5  -1 263.581 63.9187   1
  13   5   0 1755.43 185.628   2
 -13   5   0 2140.11 126.138   2
  13   5   0 1867.85 159.928   1
  13   5   1 162.794 49.6019   1
  13   5   1 81.5208 43.4519   2
 -13   5  -1 165.109 40.4672   2
 -13   5  -2 61.8693 25.2664   2
  13   5   2 27.0238 33.5855   2
  13   5   2 6.61343 26.5704   1
  13   5   3 1374.65 161.146   2
  13   5   3 1132.93 134.460   1
 -13   5  -3 1278.09 116.126   2
  13   5   4-12.3669 27.6897   2
  13   5   4 30.7194 34.5703   1
 -13   5  -4 20.5421 15.6391   2
 -13   5  -5 1015.15 112.709   2
  13   5   5 1206.34 148.387   2
  13   5   5 985.838 128.959   1
  13   5   6 17.0945 26.5532   2
 -13   5  -6 20.5699 8.79709   1
 -13   5  -6 62.3316 33.2198   2
 -13   5  -7 2480.69 190.657   2
  13  -5   7 2446.50 242.951   3
 -13   5  -7 2538.83 106.310   1
  13   5   7 2794.49 230.805   2
  13   5   8 9.25338 9.32616   3
  13   5   8-14.9990 31.0003   2
  13  -5   8 11.9490 39.5754   3
 -13   5  -8 75.4688 41.9507   2
 -13   5  -8-1.30171 17.4558   1
 -13   5  -9 421.232 84.8845   2
  13  -5   9 583.494 117.877   3
  13   5   9 409.013 51.8676   3
  13   5  10-12.0892 12.0646   3
  13  -5  10-51.4500 46.0812   3
  13   5  11 25.9178 17.3584   3
  13  -5  11 69.3123 54.1010   3
  13   5  12-0.33985 19.6689   3
  13  -5  12-88.4882 70.1977   3
  13  -5  13 503.668 130.078   3
  13  -5  14 427.933 115.964   3
  13  -5  15 230.028 86.5725   3
  13  -5  16 361.256 109.157   3
  13  -5  17 151.927 81.9294   3
  13  -5  18-110.006 69.8213   3
  13   6 -18 78.3098 79.1254   2
  13   6 -17-32.5720 73.4947   2
  13   6 -16 263.215 100.808   2
  13   6 -15 45.1342 40.3844   2
  13   6 -14 208.204 84.1553   2
  13   6 -13 25.4017 31.6920   2
  13   6 -12 254.974 87.9889   2
  13   6 -11 307.739 76.0769   3
  13   6 -11 308.360 93.0290   2
  13  -6 -10-1.97381 9.90693   1
  13   6 -10-38.3005 28.8218   3
  13   6 -10 20.5837 42.9157   2
  13   6  -9 13.6573 34.0391   2
  13   6  -9-22.3213 26.5089   3
  13  -6  -9 4.06270 8.18452   1
  13   6  -8 116.489 57.8921   2
  13   6  -8 185.567 50.4722   3
  13  -6  -8 202.440 24.8185   1
  13   6  -7 976.244 154.079   2
  13   6  -7 835.463 99.1316   3
  13   6  -6 334.426 89.5766   2
  13   6  -6 196.525 43.6495   3
  13   6  -5 50.8199 39.0357   2
  13   6  -5 2.15447 17.3965   3
  13   6  -4 609.476 119.182   2
  13   6  -4 539.051 56.5157   3
  13   6  -3 1240.17 66.5361   3
  13   6  -3 1203.55 164.035   2
  13   6  -2-16.3799 34.7323   2
  13   6  -2 4.48526 29.6001   1
  13   6  -1 777.245 110.024   1
  13   6  -1 706.626 124.750   2
 -13   6   0 355.255 39.9603   2
  13   6   0 405.623 92.8835   2
  13   6   0 485.886 90.5447   1
  13   6   1 376.483 79.3696   1
 -13   6  -1 415.073 50.4415   2
  13   6   1 306.683 82.7253   2
 -13   6  -2 200.751 39.6114   2
  13   6   2 195.687 67.4369   2
  13   6   2 199.766 62.7893   1
 -13   6  -3 267.791 50.9390   2
  13   6   3 144.543 50.9667   1
  13   6   3 233.738 73.3738   2
  13   6   4 192.262 55.8935   2
  13   6   4 209.515 68.5100   1
 -13   6  -4 64.7940 26.3061   2
  13   6   5 208.404 69.1052   2
 -13   6  -5 238.307 52.1202   2
  13   6   5 295.356 80.1780   1
  13   6   6 663.821 113.549   2
 -13   6  -6 573.286 84.6184   2
  13   6   7 449.804 100.538   2
  13  -6   7 490.486 116.664   3
 -13   6  -7 412.659 77.4964   2
  13   6   8 66.5660 48.0570   2
  13  -6   8 9.96603 48.8445   3
 -13   6  -8 12.0038 19.9750   2
 -13   6  -9-82.0252 38.1291   2
  13  -6   9 68.8879 59.9259   3
  13  -6  10 258.457 94.8355   3
  13  -6  11 189.590 72.3806   3
  13  -6  12 331.463 105.883   3
  13  -6  13 191.275 82.7753   3
  13  -6  14 322.039 102.281   3
  13  -6  15-97.1198 97.3809   3
  13  -6  16 54.9556 69.8480   3
  13   7 -17-115.677 81.9562   2
  13   7 -16-78.2742 59.4238   2
  13   7 -15 25.0504 34.6440   2
  13   7 -14 53.9111 54.2814   2
  13   7 -13 13.4963 51.7492   2
  13   7 -12 228.737 87.6995   2
  13   7 -11 256.060 92.3022   2
  13   7 -10 4.16245 31.0807   2
  13   7  -9 682.280 136.801   2
  13   7  -8 227.097 77.9262   2
  13   7  -7 1969.86 224.869   2
  13   7  -6 0.24614 31.5317   2
  13   7  -5 147.275 69.5562   2
  13   7  -4-27.1341 42.3051   2
  13   7  -3 94.7556 59.4597   2
  13   7  -3 58.4404 40.4532   1
  13   7  -2 12.8833 44.9263   2
  13   7  -2-19.2274 27.2838   1
  13   7  -1 841.457 138.977   2
  13   7  -1 922.482 125.620   1
  13   7   0 70.4438 48.8663   1
  13   7   0 45.8205 46.0208   2
  13   7   1 1966.23 207.793   2
  13   7   1 1997.70 189.029   1
  13   7   2-3.03000 39.6267   1
 -13   7  -2 3.38201 6.80317   2
  13   7   2 61.9551 43.9067   2
 -13   7  -3 10.1173 11.7390   2
  13   7   3 52.7434 45.6814   1
  13   7   3 34.2756 33.6355   2
  13   7   4 600.051 114.976   2
  13   7   4 873.111 133.464   1
  13   7   5 64.6471 42.4727   2
  13   7   5 18.0875 33.4568   1
  13   7   6 78.5834 41.5874   2
  13   7   7 79.2973 41.6347   2
  13  -7   7-0.27298 47.6211   3
  13   7   8 48.1209 32.4769   2
  13  -7   8 58.6169 43.2835   3
  13  -7   9-50.6902 43.2993   3
  13  -7  10 12.2761 41.7866   3
  13  -7  11-107.095 69.2284   3
  13  -7  12 245.654 89.6097   3
  13  -7  13 74.5173 47.2906   3
  13  -7  14-120.414 91.6958   3
  13   8 -15 7.06109 37.6760   2
  13   8 -14 23.2128 54.8437   2
  13   8 -13-11.6565 33.1730   2
  13   8 -12 258.191 96.9301   2
  13   8 -11 90.7932 70.0155   2
  13   8 -10 20.4367 50.1717   2
  13   8  -9 114.786 74.1911   2
  13   8  -8 803.799 150.998   2
  13   8  -7 162.304 68.2542   2
  13   8  -6-49.5869 44.9895   2
  13   8  -5-21.5823 52.5314   2
  13   8  -4 558.681 102.804   1
  13   8  -4 545.866 122.072   2
  13   8  -3 136.462 58.2308   1
  13   8  -3 93.4185 46.8638   2
  13   8  -2 212.542 66.6089   1
  13   8  -2 129.356 51.7661   2
  13   8  -1 25.6133 32.0092   2
  13   8  -1-8.97632 40.7257   1
  13   8   0 268.366 78.2489   1
  13   8   0 129.768 53.6164   2
  13   8   1-8.18184 25.6610   2
  13   8   1-35.4543 44.1857   1
  13   8   2 75.1305 48.7437   1
  13   8   2-40.7795 42.9817   2
  13   8   3 58.0105 42.7503   1
  13   8   3 100.532 54.9786   2
  13   8   4 173.884 64.0594   1
  13   8   4 245.895 81.2609   2
  13   8   5-21.9208 33.8363   2
  13   8   5 187.751 66.1692   1
  13   8   6 199.584 69.4857   2
  13  -8   6 14.6142 34.4141   3
  13   8   7 5.47351 29.1187   2
  13  -8   7 95.5713 58.1756   3
  13   8   8 87.3185 50.0431   2
  13  -8   8 2.10736 34.4297   3
  13  -8   9 439.814 113.638   3
  13  -8  10 102.816 78.5522   3
  13  -8  11 21.0201 54.0335   3
  13  -8  12-54.9343 53.2479   3
  13   9 -13-11.0366 53.0899   2
  13   9 -12 98.1649 64.2663   2
  13   9 -11-19.7753 36.1850   2
  13   9 -10 400.479 128.122   2
  13   9  -9-26.9077 47.5690   2
  13   9  -8 64.1899 56.6791   2
  13   9  -7 167.560 82.5583   2
  13   9  -6 133.816 71.2560   2
  13   9  -5 3.93714 43.0142   2
  13   9  -5-15.8509 28.2965   1
  13   9  -4 39.8807 36.5671   1
  13   9  -4-8.75229 31.9610   2
  13   9  -3 94.8368 55.5146   1
  13   9  -3 65.2579 43.2770   2
  13   9  -2 198.479 68.9913   2
  13   9  -2 244.304 73.1516   1
  13   9  -1 199.737 79.5111   1
  13   9  -1 119.746 60.4894   2
  13   9   0 134.061 58.3629   1
  13   9   0 124.758 64.0335   2
  13   9   1 3.92343 40.9198   1
  13   9   1-3.52453 25.1876   2
  13   9   2 6.55000 23.8207   1
  13   9   2 62.2142 53.4841   2
  13   9   3 18.4260 29.5151   2
  13   9   3 52.2886 40.5750   1
  13   9   4 243.493 72.5737   2
  13   9   4 205.671 68.9377   1
  13   9   5 29.6144 23.7276   2
  13  -9   5 76.5945 54.4290   3
  13   9   6 16.3736 27.3983   2
  13  -9   6 0.31752 36.3131   3
  13   9   7 324.344 96.8071   2
  13  -9   7 387.773 118.199   3
  13   9   8 59.0670 52.7027   2
  13  -9   8 36.5939 51.6505   3
  13  -9   9-33.4838 66.5733   3
  13  -9  10-130.769 77.5847   3
  13  10 -10-85.6543 60.7793   2
  13  10  -9 22.4699 38.6256   2
  13  10  -8 37.2283 48.1721   2
  13  10  -7 5.76622 38.7482   2
  13  10  -6 37.6625 42.9689   1
  13  10  -6-76.9926 56.2921   2
  13  10  -5 159.749 78.2959   2
  13  10  -5 193.977 67.7807   1
  13  10  -4 49.8820 24.5226   1
  13  10  -4 37.6569 54.7738   2
  13  10  -3-23.6382 39.2400   2
  13  10  -3 68.7746 44.5660   1
  13  10  -2-19.6098 25.7513   1
  13  10  -2 27.2278 25.9817   2
  13  10  -1-33.6160 55.7587   1
  13  10  -1 15.1401 28.3759   2
  13  10   0 40.9040 50.6662   2
  13  10   0-47.1266 57.7086   1
  13  10   1 19.0174 26.2397   1
  13  10   1 31.8386 40.3323   2
  13  10   2 53.7282 47.6956   1
  13  10   2 2.35699 24.4000   2
  13  10   3 213.652 80.5719   2
  13  10   3 139.108 72.4422   1
  13  10   4 359.955 98.4981   2
  13  10   4 235.869 82.6891   1
  13  10   5-95.0257 54.9427   2
  13 -10   5-66.7464 59.0294   3
  13  10   6 252.025 83.1479   2
  13 -10   6 185.665 95.0804   3
  13  10   7 53.2660 23.4791   2
  13  10   8 44.6839 40.7864   2
  13  11  -6 76.0203 70.4851   2
  13  11  -5 114.763 75.5846   2
  13  11  -4 96.1744 63.4085   2
  13  11  -3 213.474 84.8772   2
  13  11  -2 341.923 107.071   2
  13  11  -1 187.567 77.8396   2
  13  11   0 138.284 74.1938   2
  13  11   1 20.6760 34.4129   2
  13  11   2-10.3351 23.9128   2
  13  11   3 38.8353 51.9332   2
  13  11   4 122.771 71.4695   2
  13  11   5 203.074 86.0951   2
  13  11   6 148.605 73.1891   2
  13  11   7 97.4329 57.6495   2
  14   0 -23-9.96932 31.5305   2
  14   0 -22 480.770 129.628   2
  14   0 -21 141.054 70.8591   2
  14   0 -20 239.974 101.282   2
  14   0 -19-22.0553 32.2967   2
  14   0 -18 1467.46 197.145   2
  14   0 -17-79.8949 68.7465   2
  14   0 -16-16.2652 39.6265   2
  14   0 -15 44.2475 34.6740   2
  14   0 -14 133.159 56.4735   2
  14   0 -13-24.1040 43.6979   2
  14   0 -12 397.281 93.3327   2
  14   0 -11-19.5072 37.6239   2
  14   0 -10 995.438 138.189   2
 -14   0   9 18.1153 41.0646   2
  14   0  -9 56.7413 38.6843   2
  14   0  -8 416.494 88.1665   2
  14   0  -8 397.847 103.601   3
 -14   0   8 360.060 81.7908   2
  14   0  -7 378.705 80.5749   2
 -14   0   7 122.477 52.4835   2
  14   0  -6 137.151 40.5035   2
 -14   0   6 180.857 56.0426   2
  14   0  -5 20.4760 35.0949   2
 -14   0   5-56.3463 44.7005   2
  14   0  -4 84.5680 40.7704   2
 -14   0   4 89.4292 50.2251   2
  14   0  -3-20.7969 30.0232   2
 -14   0   3 16.8640 34.8678   2
  14   0  -2 66.5440 25.1543   1
  14   0  -2 52.0611 38.2358   2
 -14   0   2 23.9027 20.2763   2
  14   0  -1-8.05126 18.2797   1
  14   0  -1-45.7177 40.4784   2
 -14   0   1 11.0943 21.8689   2
  14   0   0 243.960 43.6906   1
  14   0   0 278.203 65.4076   2
 -14   0   0 304.269 73.1263   2
 -14   0  -1-28.2116 29.0470   2
  14   0   1-27.5886 24.2170   1
  14   0   1-19.4747 22.7132   2
  14   0   2 103.284 37.6727   2
 -14   0  -2 147.994 55.6162   2
 -14   0  -3-5.85014 30.4870   2
  14   0   3-7.34448 21.7247   2
  14   0   4 1308.32 136.710   2
 -14   0  -4 1412.84 162.132   2
 -14   0  -5-24.0047 19.4304   2
  14   0   5 30.9443 30.1175   2
 -14   0  -6 25.9749 31.1316   2
  14   0   6 7.61654 27.4336   3
 -14   0  -7-5.95938 18.5474   1
  14   0   7 11.8058 26.0793   3
 -14   0  -8 141.661 38.9174   1
  14   0   8 87.2611 38.1370   3
  14   0   9-60.9403 39.8299   3
 -14   0  -9-7.26944 19.8475   1
 -14   0 -10 384.627 70.6129   1
  14   0  10 416.273 88.9323   3
  14   0  11-25.2244 35.4726   3
  14   0  12 156.718 63.9122   3
  14   0  13-28.9007 31.4077   3
  14   0  14 3562.11 286.286   3
  14   0  15 5.34473 32.0348   3
  14   0  16 10.1472 31.2650   3
  14   0  17-102.588 58.9763   3
  14   0  18 51.1640 43.8286   3
  14   0  19 56.9645 45.6933   3
  14   0  20 63.5244 48.5045   3
  14   0  21 41.6095 29.4325   3
  14   0  22-75.9878 57.8151   3
  14  -1 -24-58.2294 49.9166   2
  14  -1 -23 22.2585 44.9305   2
  14   1 -23 64.6328 61.6544   2
  14  -1 -22 10.6666 54.6499   2
  14   1 -22 67.5819 42.1359   2
  14  -1 -21 29.0423 63.9860   2
  14   1 -21-106.367 65.2128   2
  14  -1 -20 14.4733 47.8850   2
  14   1 -20-12.0588 55.4731   2
  14  -1 -19 242.299 78.8011   2
  14   1 -19 284.614 99.3701   2
  14  -1 -18 28.0270 35.3395   2
  14   1 -18-92.7103 58.1125   2
  14  -1 -17 34.4914 41.6795   2
  14   1 -17-0.51768 42.2098   2
  14  -1 -16 56.8687 49.1846   2
  14   1 -16 74.1638 52.3797   2
  14  -1 -15-27.8649 29.6299   2
  14   1 -15-47.7890 44.1859   2
  14  -1 -14 1671.06 185.720   2
  14   1 -14 1469.65 183.001   2
  14  -1 -13 5782.18 335.067   2
  14   1 -13 5883.41 354.628   2
  14   1 -12 115.011 51.3636   2
  14  -1 -12 202.407 68.2881   2
  14   1 -11 825.661 131.831   2
  14  -1 -11 847.505 123.139   2
  14   1 -10 546.168 102.363   2
  14  -1 -10 673.731 105.913   2
 -14   1   9 2189.31 191.976   2
  14   1  -9 1892.88 189.617   2
  14  -1  -9 1967.52 186.961   2
  14   1  -9 2466.06 245.532   3
  14   1  -8 1316.35 178.037   3
 -14   1   8 1146.80 141.131   2
 -14  -1   8 1097.59 146.808   2
  14   1  -8 1135.48 146.536   2
  14  -1  -8 1185.66 135.146   2
  14   1  -7 334.945 80.1424   2
  14  -1  -7 303.208 69.4790   2
  14   1  -7 290.110 84.8481   3
 -14   1   7 347.731 75.7440   2
 -14  -1   7 254.035 73.2165   2
  14   1  -6 186.891 57.8412   2
  14  -1  -6 186.372 58.9887   2
 -14   1   6 191.447 57.1747   2
 -14  -1   6 156.473 61.1971   2
  14   1  -5-26.3972 25.5307   2
  14  -1  -5 20.3076 23.6523   2
 -14   1   5 57.5453 38.1666   2
 -14  -1   5-9.37570 25.5833   2
  14   1  -4 36.1726 33.7074   2
  14  -1  -4 23.5659 20.5220   2
 -14   1   4 28.0855 20.0940   2
 -14  -1   4 64.9599 44.0140   2
  14   1  -3 234.324 62.3403   2
  14  -1  -3 145.701 41.9226   2
 -14   1   3 129.844 44.0468   2
 -14  -1   3 172.295 57.6003   2
  14   1  -2 284.095 49.0483   1
  14   1  -2 138.933 56.8220   2
  14  -1  -2 231.819 53.4770   2
 -14   1   2 242.397 59.2612   2
 -14  -1   2 192.232 59.1998   2
  14  -1  -2 252.125 37.4162   1
  14   1  -1 61.4441 25.7327   1
  14   1  -1 70.5680 38.3533   2
  14  -1  -1 84.1847 24.0067   1
  14  -1  -1 64.1002 28.6743   2
 -14  -1   1 85.5986 40.4523   2
 -14   1   1 79.7742 36.8303   2
  14   1   0 165.731 38.3199   1
  14   1   0 179.811 57.7298   2
 -14  -1   0 230.800 63.1455   2
 -14   1   0 195.091 56.5791   2
  14  -1   0 144.730 45.0869   2
  14  -1   0 145.930 29.6160   1
 -14  -1  -1-1.41255 24.5320   2
 -14   1  -1 4.78357 20.4125   2
  14  -1   1-7.67564 17.8866   2
  14   1   1 68.1330 28.4015   1
  14   1   2 96.0971 34.1559   1
 -14  -1  -2 89.9038 43.1859   2
 -14   1  -2 34.7560 22.1581   2
  14  -1   2 85.5392 38.8287   2
  14   1   2 88.8008 45.7173   2
  14   1   3 403.593 79.4124   2
 -14  -1  -3 400.444 87.6610   2
 -14   1  -3 492.352 91.5001   2
  14  -1   3 515.988 82.5068   2
  14   1   4 47.6799 33.4266   2
 -14  -1  -4 106.068 49.0903   2
 -14   1  -4 49.8693 23.6562   2
  14  -1   4 42.5456 26.0001   2
  14   1   5 176.122 52.4759   2
 -14   1  -5 319.727 75.2861   2
 -14   1  -6 43.8729 32.5993   2
  14   1   6-26.0518 33.5885   2
  14   1   6-5.72029 23.3980   3
 -14   1  -7 1664.03 181.372   2
 -14   1  -7 1847.48 129.196   1
  14  -1   7 1418.91 171.530   3
  14   1   7 1854.21 161.928   3
 -14  -1  -8 382.930 72.4896   1
  14  -1   8 232.038 71.6516   3
  14   1   8 303.987 76.2018   3
 -14   1  -8 353.358 59.3498   1
 -14  -1  -9 724.874 96.0509   1
  14   1   9 883.558 122.417   3
  14  -1   9 954.829 137.017   3
 -14   1  -9 724.419 89.6437   1
  14  -1  10 1774.35 194.641   3
  14   1  10 1776.60 174.764   3
 -14   1 -10 1692.07 142.233   1
  14  -1  11 1355.30 170.793   3
  14   1  11 1483.94 163.061   3
 -14   1 -11 1349.40 135.967   1
 -14   1 -12-42.3924 36.2939   1
  14  -1  12-53.9075 51.2068   3
  14   1  12-78.7544 58.6167   3
  14  -1  13 211.439 69.8529   3
  14   1  13 239.985 76.7235   3
  14  -1  14 164.364 58.8436   3
  14   1  14 107.703 53.6521   3
  14  -1  15 39.7327 46.6267   3
  14   1  15-22.0034 33.1674   3
  14  -1  16 40.3299 42.5795   3
  14   1  16-30.9076 28.4763   3
  14  -1  17-90.0023 55.9124   3
  14   1  17-9.58488 43.0273   3
  14  -1  18 103.748 59.0983   3
  14   1  18 81.5211 59.6026   3
  14  -1  19 126.094 58.3471   3
  14   1  19 368.320 109.383   3
  14  -1  20 256.147 104.396   3
  14   1  20 254.799 93.6113   3
  14  -1  21 193.505 94.6345   3
  14   1  21 40.2840 47.3572   3
  14   1  22 210.499 86.6131   3
  14   1  23 75.4405 61.3222   3
  14  -2 -24 86.8414 60.8289   2
  14  -2 -23-142.569 68.9288   2
  14  -2 -22-2.49481 27.6488   2
  14   2 -22-57.2527 54.9087   2
  14  -2 -21 15.5697 30.4001   2
  14   2 -21-44.7027 52.0023   2
  14  -2 -20 24.9886 33.4966   2
  14   2 -20-22.0119 44.5448   2
  14  -2 -19 27.6533 46.1025   2
  14   2 -19 152.260 73.0387   2
  14  -2 -18-53.7985 37.3454   2
  14   2 -18-25.6815 39.4134   2
  14  -2 -17 2.02340 32.6372   2
  14   2 -17-53.7448 48.0898   2
  14  -2 -16 94.9023 47.6339   2
  14   2 -16 84.3462 61.3912   2
  14  -2 -15-9.91003 32.6295   2
  14   2 -15-42.7180 55.6106   2
  14  -2 -14-33.4935 44.6174   2
  14   2 -14-34.5740 51.4441   2
  14  -2 -13 219.336 69.2228   2
  14   2 -13 350.166 90.1583   2
  14   2 -12-25.2612 39.0787   2
  14  -2 -12-12.7416 27.2227   2
  14   2 -11 54.4281 46.1653   2
  14  -2 -11-4.44758 21.7821   2
  14   2 -10 130.918 49.2024   3
  14   2 -10-12.7514 37.5087   2
  14  -2 -10 63.8766 32.5019   2
  14  -2  -9 17.4357 28.0614   2
  14   2  -9 50.2615 45.1141   3
  14   2  -9 51.0452 47.4112   2
  14  -2  -8 638.731 94.1595   2
  14   2  -8 542.842 103.787   3
 -14   2   8 584.183 92.9337   2
  14   2  -8 597.400 111.183   2
 -14   2   7 1394.63 140.550   2
  14   2  -7 1476.22 171.599   2
  14  -2  -7 1381.09 137.391   2
  14   2  -7 1665.65 183.627   3
  14   2  -6 245.707 70.9729   2
  14   2  -6 153.627 55.4640   3
  14  -2  -6 216.489 55.4675   2
 -14   2   6 166.970 48.6088   2
  14   2  -5 115.843 62.3541   2
  14   2  -5 150.034 52.1304   3
  14  -2  -5 77.8038 32.4344   2
 -14   2   5 98.3822 40.7405   2
 -14  -2   5 121.520 55.4384   2
  14   2  -4 68.4947 43.8760   2
  14  -2  -4-0.67456 21.7320   2
 -14   2   4-22.7073 29.7416   2
 -14  -2   4-13.6195 33.5867   2
  14  -2  -3 12.3416 12.6957   1
  14   2  -3 37.7253 41.9628   2
 -14   2   3 47.7346 27.6556   2
  14  -2  -3 25.1206 28.1396   2
 -14  -2   3 7.19963 21.8901   2
  14   2  -2 24.5132 29.6248   2
  14  -2  -2 13.9502 8.63371   1
 -14   2   2 25.5854 24.7308   2
  14  -2  -2 29.0577 22.3431   2
  14  -2  -1 617.524 82.4292   2
  14   2  -1 655.808 77.6446   1
 -14   2   1 604.144 89.0548   2
  14   2  -1 561.199 95.3012   2
 -14  -2   1 610.158 106.879   2
  14   2   0 1643.74 166.278   2
  14  -2   0 1792.02 141.809   2
 -14  -2   0 1782.44 185.228   2
 -14   2   0 1817.89 156.889   2
  14   2   0 1826.34 133.671   1
  14   2   1 3168.71 229.615   2
 -14  -2  -1 3028.06 246.135   2
  14  -2   1 2991.85 182.179   2
 -14   2  -1 2834.68 198.508   2
  14   2   1 2933.49 177.488   1
 -14  -2  -2 63.4029 37.3625   2
 -14   2  -2 135.597 41.8891   2
  14   2   2 184.109 53.9739   1
  14  -2   2 148.881 44.9301   2
  14   2   2 132.105 49.6421   2
  14   2   3 39.6357 35.5944   2
 -14   2  -3-26.5323 32.3882   2
  14   2   3 36.8789 34.3694   1
  14   2   4 742.807 110.998   2
  14   2   4 665.680 84.9858   3
 -14   2  -4 816.735 114.257   2
  14   2   5 466.930 88.7365   2
 -14   2  -5 448.364 84.0441   2
  14   2   6 334.562 82.7386   2
 -14   2  -6 282.091 70.5324   2
 -14   2  -7 3456.86 160.625   1
 -14   2  -7 3212.65 237.210   2
  14  -2   7 3032.65 238.436   3
  14   2   7 3524.02 242.481   2
 -14   2  -8 22.1402 19.3431   1
  14  -2   8 111.075 51.5650   3
  14  -2   9 133.881 52.7803   3
  14   2   9 116.750 47.2991   3
 -14   2  -9 96.9242 28.5011   1
  14  -2  10 7.02759 46.4049   3
 -14   2 -10 9.32557 14.6280   1
  14   2  10-17.5744 24.0488   3
 -14   2 -11 34.7600 29.0524   1
  14  -2  11 38.6998 44.3204   3
  14   2  11-3.68022 24.7340   3
 -14   2 -12-17.1357 23.0597   1
  14  -2  12-42.6274 35.6291   3
  14   2  12-49.6489 39.0624   3
  14  -2  13 58.4991 36.4930   3
  14   2  13 126.283 51.7863   3
  14  -2  14 24.8973 37.7287   3
  14   2  14 21.2760 32.4105   3
  14  -2  15 44.8091 35.5336   3
  14   2  15 126.429 53.1207   3
  14  -2  16 136.357 66.6747   3
  14   2  16 131.777 52.7437   3
  14  -2  17-13.8632 26.4517   3
  14   2  17 102.397 56.7134   3
  14  -2  18-24.6085 60.0042   3
  14   2  18 211.326 77.9056   3
  14  -2  19 8.03682 34.1480   3
  14   2  19 2.70526 55.3709   3
  14   2  20 17.4853 40.8776   3
  14  -2  20 120.685 82.7243   3
  14   2  21-55.8690 46.9037   3
  14   2  22 40.7934 44.8614   3
  14  -3 -23-14.6533 44.2256   2
  14  -3 -22 54.4436 53.6971   2
  14  -3 -21 71.4173 43.2527   2
  14   3 -21-7.82983 36.1591   2
  14  -3 -20 191.283 78.1188   2
  14   3 -20-89.2088 70.6628   2
  14  -3 -19-41.4052 43.2149   2
  14   3 -19-121.206 79.2391   2
  14  -3 -18-43.2522 40.4390   2
  14   3 -18 55.5806 32.6124   2
  14  -3 -17-0.64470 25.6094   2
  14   3 -17 67.1271 52.9562   2
  14  -3 -16-14.3429 23.5363   2
  14   3 -16 37.7357 37.9970   2
  14  -3 -15 216.665 67.2056   2
  14   3 -15 196.051 86.9365   2
  14  -3 -14-27.1396 32.6775   2
  14   3 -14-45.4505 42.6177   2
  14   3 -13 318.918 101.116   2
  14  -3 -13 287.703 68.0908   2
  14  -3 -12 1140.12 132.887   2
  14   3 -12 1022.09 153.081   2
  14   3 -11 164.326 64.3418   2
  14  -3 -11 340.577 74.0938   2
  14   3 -11 329.777 80.3974   3
  14   3 -10 782.647 121.769   3
  14  -3 -10 938.140 113.995   2
  14   3 -10 899.767 139.095   2
  14   3  -9-38.0726 32.3156   3
  14  -3  -9 11.6485 22.6821   2
  14   3  -9-53.4260 50.3481   2
  14   3  -8 468.020 105.174   2
  14   3  -8 301.157 68.4670   3
  14  -3  -8 298.519 58.2484   2
  14   3  -7 1178.73 152.647   2
  14  -3  -7 1144.38 114.429   2
  14   3  -7 1172.35 139.261   3
  14   3  -6 842.426 128.615   2
 -14   3   6 724.309 93.4853   2
  14   3  -6 939.788 122.693   3
  14  -3  -6 818.513 94.6921   2
  14  -3  -5 1064.53 105.315   2
 -14   3   5 1044.89 113.329   2
  14   3  -5 1146.42 149.821   2
  14   3  -5 1009.60 124.342   3
  14   3  -4 102.409 41.7395   3
  14  -3  -4 161.592 21.3809   1
  14   3  -4 123.411 54.8868   2
 -14   3   4 158.167 48.1283   2
  14  -3  -4 146.674 37.7881   2
  14   3  -3 2333.33 179.549   3
 -14   3   3 2361.16 168.365   2
  14  -3  -3 2395.41 150.076   2
  14   3  -3 2105.56 198.951   2
  14  -3  -2 191.194 43.6963   2
  14   3  -2 213.889 54.9260   3
  14   3  -2 246.344 61.9225   1
  14   3  -2 159.833 49.4468   2
 -14   3   2 186.230 46.3658   2
  14   3  -1 2844.15 224.401   2
  14   3  -1 2889.62 177.469   1
 -14   3   1 2903.42 187.057   2
  14  -3  -1 2816.80 162.985   2
  14  -3   0 490.722 68.9822   2
  14   3   0 461.814 71.2264   1
  14   3   0 364.688 74.2833   2
 -14   3   0 451.258 75.3833   2
  14   3   1 1940.88 186.449   2
 -14   3  -1 2091.07 162.801   2
  14   3   1 2013.60 162.030   1
  14   3   2 2089.32 191.847   2
  14   3   2 1987.63 158.327   1
 -14   3  -2 1943.37 159.876   2
  14   3   3 476.702 85.7793   1
 -14   3  -3 386.565 66.3051   2
  14   3   3 419.018 62.2368   3
  14   3   4 3373.02 243.833   2
  14   3   4 3539.93 177.029   3
  14   3   4 3696.37 226.951   1
 -14   3  -4 3609.01 230.471   2
  14   3   5-2.21150 20.1136   2
 -14   3  -5 56.0695 29.1450   2
  14   3   5 23.9335 21.8117   3
 -14   3  -6 6869.51 335.900   2
  14   3   6 6478.26 253.019   3
  14   3   6 6551.11 341.576   2
  14   3   7 75.9769 35.7125   2
  14  -3   7-14.1838 38.1211   3
 -14   3  -7 6.20392 22.2755   2
  14   3   7 15.8303 19.8524   3
 -14   3  -7 2.99052 13.7049   1
 -14   3  -8 339.993 52.2120   1
  14   3   8 446.537 93.8110   2
  14  -3   8 442.914 101.090   3
 -14   3  -8 297.958 72.9136   2
  14  -3   9-110.561 73.2191   3
 -14   3  -9 0.35787 13.4280   1
  14  -3  10 606.183 122.243   3
 -14   3 -10 646.423 82.4690   1
 -14   3 -11 12.4803 16.5361   1
  14  -3  11 129.802 61.6184   3
  14   3  11 54.0837 27.7180   3
  14  -3  12 24.2606 30.0737   3
  14   3  12 28.8378 23.8554   3
 -14   3 -12 62.4057 32.0836   1
  14  -3  13 53.2901 55.1113   3
  14   3  13 32.7351 38.6806   3
  14  -3  14 139.062 69.0718   3
  14   3  14 89.0527 40.0709   3
  14  -3  15 30.3729 58.3205   3
  14   3  15 57.3889 38.9186   3
  14  -3  16-17.1331 47.3691   3
  14   3  16 14.0439 39.1071   3
  14   3  17-18.7803 27.2026   3
  14  -3  17 104.308 58.5256   3
  14   3  18 36.3623 37.4631   3
  14  -3  18-9.18313 45.2242   3
  14   3  19 43.9170 58.6529   3
  14  -3  19 41.6232 52.7194   3
  14   4 -20 108.559 76.8456   2
  14  -4 -19 76.0993 40.9427   2
  14   4 -19 44.9460 28.9524   2
  14  -4 -18 151.937 60.6012   2
  14   4 -18 35.9271 45.4306   2
  14  -4 -17 5.80450 27.4057   2
  14   4 -17 10.9608 33.3510   2
  14  -4 -16 59.9023 22.0930   2
  14   4 -16 89.1242 54.6915   2
  14  -4 -15 142.290 59.7803   2
  14   4 -15 161.971 77.0462   2
  14   4 -14 187.793 67.7171   2
  14  -4 -14 195.881 57.2041   2
  14   4 -13 286.975 89.3607   2
  14  -4 -13 158.103 50.0103   2
  14   4 -12-13.0275 27.8164   2
  14  -4 -12 3.06753 16.0618   2
  14  -4 -11 52.8265 29.2210   2
  14   4 -11 34.8135 27.4545   2
  14  -4 -10 101.507 34.6312   2
  14   4 -10 190.329 62.1340   3
  14   4 -10 139.504 60.3784   2
  14  -4  -9 16.6021 24.2229   2
  14   4  -9 83.3931 35.9543   3
  14   4  -9 72.5963 52.9614   2
  14   4  -8 1379.11 180.820   2
  14   4  -8 1390.17 145.617   3
  14  -4  -8 1477.90 120.078   2
  14  -4  -7 1101.54 98.9523   2
  14   4  -7 1251.70 169.583   2
  14   4  -7 1108.39 126.062   3
  14   4  -6 38.4267 47.7014   2
  14  -4  -6 7.20907 11.6637   2
  14   4  -6 3.22484 21.8141   3
  14   4  -5 343.516 64.2036   3
  14   4  -5 436.473 97.8552   2
 -14   4   5 455.614 66.6700   2
  14  -4  -5 471.490 61.3472   2
 -14   4   4 651.043 79.4079   2
  14   4  -4 673.237 115.373   2
  14  -4  -4 640.990 68.8468   2
  14   4  -4 655.385 85.5698   3
  14   4  -3 76.3019 25.5618   3
  14  -4  -3 72.2624 23.0133   2
  14   4  -3 92.2275 53.6744   2
 -14   4   3 59.7223 26.4632   2
  14   4  -2 295.225 50.9733   3
  14   4  -2 451.887 96.9840   2
  14  -4  -2 270.304 46.2702   2
 -14   4   2 255.886 49.0811   2
  14   4  -2 344.823 70.1330   1
  14   4  -1 228.162 44.8824   3
  14   4  -1 249.628 74.1450   2
  14   4  -1 255.823 59.0145   1
 -14   4   1 260.520 52.3525   2
  14   4   0 50.7097 25.0663   3
  14   4   0-33.8402 32.1615   2
  14   4   0 18.1669 23.1610   1
 -14   4   0-16.2762 30.7040   2
  14   4   1 1387.83 101.461   3
  14   4   1 1354.79 161.493   2
 -14   4  -1 1450.01 128.759   2
  14   4   1 1283.14 131.693   1
  14   4   2 1022.33 140.701   2
  14   4   2 1125.95 79.2434   3
  14   4   2 1089.95 125.937   1
 -14   4  -2 1067.90 113.547   2
 -14   4  -3-48.3196 28.0341   2
  14   4   3-79.0158 45.3647   1
  14   4   3 15.9795 9.88070   3
  14   4   3 30.4359 32.8371   2
  14   4   4 1234.28 156.072   2
  14   4   4 1255.53 84.1607   3
  14   4   4 1047.64 128.395   1
 -14   4  -4 1068.81 121.456   2
  14   4   5 261.830 71.2864   2
 -14   4  -5 298.223 65.6057   2
  14   4   5 345.826 45.9755   3
 -14   4  -6 2813.44 206.771   2
  14   4   6 3277.22 148.477   3
  14   4   6 2836.68 231.895   2
  14   4   7 764.455 123.461   2
  14  -4   7 649.061 124.840   3
 -14   4  -7 548.683 96.7983   2
  14   4   7 733.340 74.4205   3
 -14   4  -7 805.817 62.7142   1
  14   4   8-21.0254 50.8187   2
 -14   4  -8 9.10061 16.8616   2
  14   4   8 18.0681 18.2917   3
 -14   4  -8 35.3616 14.5572   1
 -14   4  -9 281.596 48.4880   1
  14  -4   9 262.200 74.3865   3
  14   4   9 319.506 56.3487   3
 -14   4 -10 48.9954 26.9386   1
  14  -4  10 96.7366 55.0582   3
  14   4  10 44.8501 27.2827   3
  14  -4  11-17.7773 53.2736   3
  14  -4  12 72.6869 47.0740   3
  14   4  13 59.4225 38.5036   3
  14  -4  13-0.82478 55.8153   3
  14   4  14-7.15269 20.7734   3
  14  -4  14 174.196 81.7856   3
  14   4  15 13.0101 20.4429   3
  14  -4  15 133.812 68.5197   3
  14   4  16 2.30261 32.6064   3
  14  -4  16-77.2791 70.7942   3
  14  -4  17 53.1364 40.7928   3
  14  -4  18 127.754 78.8956   3
  14   5 -19 0.70243 66.2935   2
  14   5 -18-31.5442 32.2040   2
  14   5 -17-4.80191 46.2507   2
  14   5 -16-62.6285 50.1390   2
  14   5 -15 47.5166 34.0614   2
  14   5 -14-45.1847 59.0372   2
  14  -5 -14 24.0623 20.8237   2
  14   5 -13 512.510 121.353   2
  14  -5 -13 286.229 61.8190   2
  14  -5 -12 2.28904 19.2361   2
  14   5 -12 30.6537 35.0479   2
  14  -5 -11 17.9353 18.6110   2
  14   5 -11-11.2470 31.8189   3
  14   5 -10 729.779 114.104   3
  14  -5 -10 740.725 78.4362   2
  14   5 -10 756.031 147.286   2
  14   5  -9 111.087 53.4088   2
  14  -5  -9 108.995 30.9527   2
  14   5  -9 165.186 57.3499   3
  14  -5  -8 1253.02 88.4860   2
  14   5  -8 1296.44 135.504   3
  14   5  -8 1267.75 176.347   2
  14   5  -7 303.101 89.2339   2
  14  -5  -7 193.160 18.7133   1
  14   5  -7 181.602 51.7992   3
  14  -5  -7 260.442 38.5303   2
  14   5  -6 290.919 83.7437   2
  14  -5  -6 318.108 41.2024   2
  14   5  -6 258.741 56.8272   3
  14   5  -5 157.793 65.8207   2
  14  -5  -5 128.016 27.8919   2
  14   5  -5 94.7457 34.4010   3
  14   5  -4 24.8495 43.1290   2
  14   5  -4-0.66541 16.6818   3
 -14   5   3-5.20103 15.1898   2
  14   5  -3-38.8636 34.7966   2
  14   5  -3 22.5042 20.3892   3
  14   5  -2-68.4838 58.2351   2
 -14   5   2 19.4475 14.7617   2
  14   5  -2 22.8890 31.4709   1
  14   5  -2 15.6204 14.0837   3
  14   5  -1 44.6875 37.6179   1
  14   5  -1 62.4460 53.4005   2
 -14   5   1 34.7826 22.7495   2
  14   5  -1 38.5795 13.7312   3
  14   5   0 3490.45 266.107   2
 -14   5   0 3669.44 178.019   2
  14   5   0 3585.85 223.774   1
  14   5   1 297.634 75.7724   1
  14   5   1 324.655 83.5793   2
 -14   5  -1 274.332 54.6878   2
 -14   5  -2-5.51348 18.3709   2
  14   5   2 21.6205 27.5644   1
  14   5   2-25.7236 24.5665   2
 -14   5  -3 181.029 41.5707   2
  14   5   3 153.192 53.1365   1
  14   5   3 361.618 90.7542   2
  14   5   4 3.10121 30.3736   2
  14   5   4-53.6317 35.3083   1
 -14   5  -4 29.4045 21.0034   2
  14   5   5 31.3368 33.7381   2
 -14   5  -5 62.5759 32.0492   2
  14   5   6-24.5779 35.5879   2
 -14   5  -6-12.0420 21.0122   2
  14   5   7 27.4208 27.8459   2
  14  -5   7 55.6668 58.8558   3
 -14   5  -7 76.2206 17.4600   1
 -14   5  -7 51.8518 30.2007   2
  14   5   8 230.264 33.5430   3
  14   5   8 284.671 81.2805   2
  14  -5   8 285.734 94.2544   3
 -14   5  -8 239.879 63.6652   2
 -14   5  -9 1174.25 145.989   2
  14  -5   9 1265.44 179.048   3
  14   5   9 1163.49 85.5854   3
  14   5  10 114.791 33.8678   3
  14  -5  10 137.590 66.0293   3
  14  -5  11 462.308 139.251   3
  14   5  11 597.044 76.1483   3
  14  -5  12-67.6562 53.6836   3
  14  -5  13-2.33989 43.3033   3
  14  -5  14-12.1007 39.2351   3
  14  -5  15 411.744 109.606   3
  14  -5  16 6.80383 38.3114   3
  14  -5  17 37.6767 56.2753   3
  14   6 -17 86.6144 61.0669   2
  14   6 -16 105.309 62.5364   2
  14   6 -15-78.2955 59.0762   2
  14   6 -14 67.7474 55.1309   2
  14   6 -13 69.5443 57.0999   2
  14   6 -12 4.57788 43.2226   2
  14   6 -11 57.2577 57.6185   2
  14   6 -10 41.6720 50.3661   2
  14   6 -10 48.7705 36.4184   3
  14   6  -9 121.858 60.3941   2
  14   6  -9 55.7140 35.6281   3
  14   6  -8-26.2234 53.5654   2
  14   6  -8 23.2317 22.7083   3
  14   6  -7 305.906 97.7975   2
  14   6  -7 281.975 57.6565   3
  14   6  -6-6.92425 36.4660   2
  14   6  -6 57.8573 24.8534   3
  14   6  -5 299.725 85.5392   2
  14   6  -5 170.962 37.3836   3
  14   6  -4-9.51065 30.8032   2
  14   6  -4-8.12106 15.6441   3
  14   6  -3-12.4089 38.6847   1
  14   6  -3 10.6018 41.8348   2
  14   6  -3 9.13588 8.38840   3
  14   6  -2-12.8363 27.2421   1
  14   6  -2-23.8703 32.2613   2
  14   6  -1 0.44273 28.3448   1
 -14   6   1 22.4685 12.6815   2
  14   6  -1 72.0387 49.8557   2
  14   6   0-25.0424 28.7135   1
 -14   6   0 15.8295 16.6988   2
  14   6   0-5.49049 32.5822   2
  14   6   1 347.195 86.0871   1
 -14   6  -1 493.644 59.4748   2
  14   6   1 602.181 117.268   2
  14   6   2 89.7759 48.9872   1
  14   6   2 125.496 56.9682   2
 -14   6  -2 57.8000 23.1168   2
 -14   6  -3 40.8575 20.0702   2
  14   6   3 56.9011 36.8321   1
  14   6   3-8.53093 38.1132   2
  14   6   4-29.8666 43.1275   2
  14   6   4-5.09950 28.1187   1
 -14   6  -4 7.10015 18.3809   2
  14   6   5 291.121 79.0049   2
 -14   6  -5 156.509 42.5851   2
  14   6   6 473.924 101.908   2
 -14   6  -6 406.122 75.4135   2
  14   6   7-35.0536 44.8249   2
  14  -6   7-3.92847 54.0001   3
 -14   6  -7 19.0863 26.5735   2
  14   6   8 11.7204 27.4181   2
  14  -6   8 25.0598 33.2658   3
 -14   6  -8-26.3334 23.1611   2
  14   6   9 66.7115 38.1556   2
  14  -6   9 65.2779 52.0162   3
  14  -6  10 64.8308 47.2549   3
  14  -6  11 37.9841 49.8278   3
  14  -6  12 91.8697 56.1962   3
  14  -6  13 80.0548 62.4994   3
  14  -6  14 243.750 79.2223   3
  14  -6  15-207.052 89.5704   3
  14   7 -16 93.3455 62.8195   2
  14   7 -15-36.7888 47.8666   2
  14   7 -14 191.018 80.7804   2
  14   7 -13-40.1411 57.9768   2
  14   7 -12 111.469 70.9854   2
  14   7 -11 338.102 107.498   2
  14   7 -10 177.967 77.1554   2
  14   7  -9 246.971 87.1206   2
  14   7  -8 176.630 72.5067   2
  14   7  -7-10.8710 41.4277   2
  14   7  -6 28.9829 43.0696   2
  14   7  -5-151.122 77.5277   2
  14   7  -4-43.9301 35.2366   2
  14   7  -3 110.727 43.6960   2
  14   7  -3 67.5494 37.8390   1
  14   7  -2 23.0437 26.6240   1
  14   7  -2 17.3359 40.3001   2
  14   7  -1 267.588 74.4706   2
  14   7  -1 371.579 82.0225   1
  14   7   0 50.1492 37.6980   1
  14   7   0 87.9502 48.1870   2
  14   7   1 14.6587 33.7997   2
  14   7   1-27.6823 37.6336   1
  14   7   2 22.3928 30.6404   1
  14   7   2 107.700 62.7720   2
  14   7   3 816.809 136.463   1
  14   7   3 868.515 143.718   2
  14   7   4 786.382 136.225   2
  14   7   4 661.123 118.355   1
  14   7   5 33.3740 30.5137   2
  14   7   5 62.0530 42.0025   1
  14   7   6 15.9784 32.2038   2
  14   7   7 172.798 70.5063   2
  14  -7   7 35.9134 43.5523   3
  14   7   8 164.023 68.5690   2
  14  -7   8 123.919 61.4023   3
  14   7   9-13.0523 22.3749   2
  14  -7   9-104.401 72.9814   3
  14  -7  10 95.3348 44.7430   3
  14  -7  11-102.315 69.4283   3
  14  -7  12 385.880 117.647   3
  14  -7  13 243.423 87.3987   3
  14   8 -14 31.2380 39.8749   2
  14   8 -13 0.34360 30.4913   2
  14   8 -12 230.965 85.9710   2
  14   8 -11-2.89518 33.9451   2
  14   8 -10 74.2142 65.1507   2
  14   8  -9 130.077 79.1774   2
  14   8  -8-54.7069 55.7718   2
  14   8  -7 191.481 70.0669   2
  14   8  -6 88.3300 59.7368   2
  14   8  -5 219.588 81.0826   2
  14   8  -4 593.543 109.336   1
  14   8  -4 425.635 111.288   2
  14   8  -3-53.7944 55.5241   2
  14   8  -3 45.4079 38.3260   1
  14   8  -2 24.2426 24.7285   2
  14   8  -2 10.6087 31.3806   1
  14   8  -1 8.88057 25.9603   1
  14   8  -1 103.264 57.6261   2
  14   8   0-3.12576 27.2689   1
  14   8   0-1.48018 24.3324   2
  14   8   1 29.2862 26.4377   2
  14   8   1-46.2241 42.8461   1
  14   8   2-47.3480 50.7566   1
  14   8   2 41.9566 25.0109   2
  14   8   3 47.5814 43.9343   1
  14   8   3-35.5227 28.8671   2
  14   8   4 122.522 59.8435   1
  14   8   4 43.2151 44.4793   2
  14   8   5 497.121 111.360   2
  14   8   6 163.449 66.8765   2
  14  -8   6 169.061 77.8556   3
  14   8   7 366.316 96.7498   2
  14  -8   7 366.756 117.767   3
  14   8   8-50.4220 49.6692   2
  14  -8   8-4.38734 39.0783   3
  14  -8   9 109.981 70.3771   3
  14  -8  10-67.3778 50.6383   3
  14  -8  11 14.3009 41.9543   3
  14   9 -11 17.3434 39.3580   2
  14   9 -10-91.4475 62.1383   2
  14   9  -9 69.2132 42.8932   2
  14   9  -8-61.0981 35.3715   2
  14   9  -7-33.1095 26.1024   2
  14   9  -6-35.2579 59.6353   2
  14   9  -5 32.8121 40.9678   2
  14   9  -5 113.709 54.6506   1
  14   9  -4 97.7900 44.6106   2
  14   9  -4 36.8474 37.4982   1
  14   9  -3 0.81739 29.8010   1
  14   9  -3 9.18721 33.8239   2
  14   9  -2 29.8449 36.2358   1
  14   9  -2 85.7398 45.8280   2
  14   9  -1 81.8633 49.2310   1
  14   9  -1 22.1628 36.0426   2
  14   9   0-66.0446 43.3354   2
  14   9   0 97.9931 58.4882   1
  14   9   1 67.2102 47.9526   1
  14   9   1-16.8386 42.8035   2
  14   9   2 50.2227 40.4200   1
  14   9   2 85.6916 63.2773   2
  14   9   3 100.176 51.2570   2
  14   9   3 28.8636 39.7205   1
  14   9   4 1.77824 30.8468   2
  14   9   4 53.4490 40.7503   1
  14   9   5 258.239 81.5490   2
  14   9   6-25.0624 50.7349   2
  14  -9   6-40.2676 57.8117   3
  14   9   7 123.318 66.4646   2
  14  -9   7 142.106 65.2917   3
  14   9   8 64.3739 52.2817   2
  14  -9   8 75.2397 51.6003   3
  14  10  -8 22.9626 55.1408   2
  14  10  -7-148.679 77.3865   2
  14  10  -6 32.4485 60.5168   2
  14  10  -5 6.86860 22.6565   2
  14  10  -4-52.3356 47.3752   2
  14  10  -3 53.5570 45.9135   2
  14  10  -2 15.2476 26.6048   1
  14  10  -2-45.2116 41.6713   2
  14  10  -1-12.9465 35.6381   2
  14  10  -1 106.521 61.0537   1
  14  10   0 125.103 62.9345   1
  14  10   0 115.364 65.2829   2
  14  10   1 91.0540 60.0307   2
  14  10   2-27.1788 36.0756   2
  14  10   3 4.08539 36.7773   2
  14  10   4 171.371 65.8620   2
  14  10   5 106.192 64.5377   2
  14  10   6 19.0060 32.4107   2
  14  10   7 19.8044 30.7933   2
  14  10   8 114.187 64.9010   2
  14  11  -2-70.6905 54.3445   2
  14  11  -1-39.4570 42.3545   2
  14  11   0 21.7325 50.1124   2
  14  11   1-38.0219 39.9730   2
  14  11   2 27.2639 27.5251   2
  14  11   3-44.7289 41.8730   2
  15   0 -23 177.318 81.0856   2
  15   0 -22 11.4629 37.6308   2
  15   0 -21 388.137 112.512   2
  15   0 -20-139.991 84.4648   2
  15   0 -19 9.46766 44.5417   2
  15   0 -18 49.9040 38.3975   2
  15   0 -17-18.8422 30.1578   2
  15   0 -16-0.24208 41.6120   2
  15   0 -15 43.0558 39.1533   2
  15   0 -14 21.2664 27.9588   2
  15   0 -13 66.5574 41.3604   2
  15   0 -12-17.8856 35.5694   2
  15   0 -11-18.2952 40.7121   2
  15   0 -10 41.3509 40.1956   2
 -15   0   9 2259.93 214.943   2
  15   0  -9 1881.47 185.991   2
  15   0  -8 7.00408 36.7374   2
 -15   0   8-2.86864 26.8862   2
  15   0  -7 174.541 60.5736   2
 -15   0   7 247.520 76.9287   2
  15   0  -6-5.91946 23.1519   2
 -15   0   6 14.9932 25.8964   2
  15   0  -5-12.8819 27.2815   2
 -15   0   5 58.3825 43.1145   2
  15   0  -4-12.2490 29.6176   2
 -15   0   4 20.4137 34.1271   2
  15   0  -3 371.555 77.0152   2
 -15   0   3 309.502 73.6943   2
  15   0  -2-2.75024 17.4044   1
  15   0  -2-3.04827 17.6856   2
 -15   0   2 7.80287 22.4563   2
  15   0  -1 2803.60 208.181   2
 -15   0   1 3086.52 231.063   2
  15   0  -1 3054.48 152.661   1
  15   0   0 32.0813 21.9442   1
  15   0   0-7.47630 24.5318   2
 -15   0   0-0.52244 27.7474   2
 -15   0  -1 326.709 77.1356   2
  15   0   1 256.961 54.3139   1
  15   0   1 318.259 70.3581   2
 -15   0  -2-1.82165 20.4938   2
  15   0   2-22.5669 36.8761   2
 -15   0  -3 131.072 53.3719   2
  15   0   3 143.209 47.2864   2
 -15   0  -4-4.04250 35.0787   2
  15   0   4-36.6115 36.7542   2
  15   0   5 24.1814 34.7432   2
  15   0   6-9.82708 26.8139   3
  15   0   7 202.533 66.4952   3
  15   0   8-20.2040 36.5237   3
 -15   0  -8 14.5800 21.4671   1
 -15   0  -9-13.4724 22.7370   1
  15   0   9-31.9054 36.9391   3
  15   0  10 25.3898 33.5494   3
 -15   0 -10 12.6053 16.4204   1
  15   0  11 4.99396 32.7982   3
  15   0  12 24.7125 41.2928   3
  15   0  13-24.6386 47.3386   3
  15   0  14 48.8765 46.2391   3
  15   0  15 949.693 153.318   3
  15   0  16-17.2444 53.0060   3
  15   0  17 9.39226 33.5084   3
  15   0  18 57.9154 51.0529   3
  15   0  19-170.568 77.0799   3
  15   0  20-68.0925 58.0007   3
  15   0  21 53.4221 47.9852   3
  15   0  22-0.35531 60.4642   3
  15  -1 -24-73.9235 55.0642   2
  15  -1 -23-50.3455 58.1911   2
  15  -1 -22-4.45060 49.2278   2
  15   1 -22-11.9871 37.0428   2
  15  -1 -21 14.5934 29.2933   2
  15   1 -21 29.1690 48.3682   2
  15  -1 -20 80.8212 57.6315   2
  15   1 -20 109.954 59.7060   2
  15  -1 -19 103.588 67.7952   2
  15   1 -19 109.890 76.3624   2
  15  -1 -18 41.6858 37.1211   2
  15   1 -18 17.8075 28.3879   2
  15  -1 -17 88.7214 59.1840   2
  15   1 -17-32.4076 45.0301   2
  15  -1 -16 63.3910 56.0324   2
  15   1 -16-26.9326 37.5957   2
  15  -1 -15 143.121 66.0972   2
  15   1 -15 102.246 52.9688   2
  15   1 -14 1204.13 167.719   2
  15  -1 -14 981.847 143.772   2
  15   1 -13-36.8693 49.2287   2
  15  -1 -13 10.2984 29.7384   2
  15  -1 -12 1061.21 145.646   2
  15   1 -12 943.367 148.621   2
  15   1 -11 462.779 99.5130   2
  15  -1 -11 503.352 99.6277   2
  15   1 -10 92.5508 54.2491   2
  15  -1 -10 96.7318 48.4076   2
  15   1  -9 608.440 109.071   2
  15  -1  -9 740.639 115.109   2
  15   1  -9 768.453 147.306   3
 -15   1   9 696.159 115.830   2
  15   1  -8 283.068 78.1175   2
  15  -1  -8 240.174 69.0757   2
  15   1  -8 403.373 100.604   3
 -15   1   8 399.056 89.9427   2
  15   1  -7 23.8347 32.5194   2
  15  -1  -7 14.6387 28.2371   2
  15   1  -7 55.8341 54.3980   3
 -15   1   7 4.08706 32.9286   2
  15   1  -6 601.200 103.641   2
  15  -1  -6 530.190 90.2685   2
 -15   1   6 419.998 80.2722   2
 -15  -1   6 609.286 109.328   2
  15   1  -5 138.718 54.7790   2
  15  -1  -5 129.006 39.8841   2
 -15   1   5 206.398 60.6445   2
 -15  -1   5 133.443 58.2576   2
  15  -1  -4 1318.98 138.284   2
 -15   1   4 1253.15 145.235   2
 -15  -1   4 1225.14 152.646   2
  15   1  -4 1053.71 136.923   2
  15  -1  -3 262.448 42.1067   1
  15   1  -3 273.899 69.9318   2
  15  -1  -3 214.548 56.9777   2
 -15   1   3 350.511 79.8619   2
 -15  -1   3 247.856 70.7020   2
  15   1  -2 470.329 66.6670   1
  15   1  -2 460.883 88.3739   2
  15  -1  -2 487.938 83.0399   2
 -15   1   2 521.716 90.9975   2
 -15  -1   2 516.338 102.850   2
  15  -1  -2 478.959 54.0624   1
  15  -1  -1 248.867 40.6965   1
  15   1  -1 236.589 64.1115   2
  15   1  -1 213.098 44.0264   1
 -15  -1   1 296.266 78.3808   2
 -15   1   1 170.009 52.6751   2
  15  -1  -1 248.004 57.0266   2
  15  -1   0 35.0642 19.7874   2
  15   1   0-30.9818 32.9914   2
  15  -1   0 9.35422 12.5719   1
 -15  -1   0 60.0287 31.9455   2
  15   1   0-34.0827 28.3708   1
 -15   1   0-33.2836 31.3443   2
 -15   1  -1 318.134 73.1839   2
  15  -1   1 360.270 70.1379   2
  15   1   1 349.894 60.2663   1
  15   1   1 274.257 67.2602   2
 -15  -1  -1 387.011 85.1438   2
  15   1   2 1280.62 140.976   2
  15   1   2 1095.91 110.632   1
  15  -1   2 1112.41 123.389   2
 -15   1  -2 1091.73 140.293   2
  15   1   3 398.656 80.2634   2
 -15   1  -3 494.525 96.3964   2
  15  -1   3 453.594 80.0437   2
  15   1   4 157.895 54.2950   2
 -15   1  -4 147.539 48.6656   2
  15  -1   4 98.3427 41.3626   2
 -15   1  -5 189.778 61.5448   2
  15   1   5 115.467 46.1457   2
  15   1   5 30.1648 28.0745   3
  15   1   6 222.795 67.9263   2
  15   1   6 190.634 60.2065   3
  15  -1   7 630.188 109.503   3
  15   1   7 680.440 102.666   3
  15  -1   8 263.918 77.9680   3
  15   1   8 195.898 60.4070   3
 -15   1  -8 225.956 48.1584   1
  15  -1   9 468.924 98.9001   3
  15   1   9 586.301 104.001   3
 -15   1  -9 503.597 75.0273   1
 -15   1 -10 174.829 48.3851   1
  15  -1  10 151.740 57.9966   3
  15   1  10 185.313 58.4630   3
 -15   1 -11 129.624 45.5384   1
  15  -1  11 66.0907 43.4192   3
  15   1  11 76.6139 45.3234   3
  15  -1  12 21.8744 37.6007   3
  15   1  12-41.4300 36.7170   3
  15  -1  13 157.355 58.5622   3
  15   1  13 264.563 69.0086   3
  15  -1  14-52.6545 44.7522   3
  15   1  14 22.3621 36.2647   3
  15  -1  15 46.0634 32.2446   3
  15   1  15-57.5800 54.0006   3
  15  -1  16-14.6785 38.8494   3
  15   1  16-50.0297 42.9899   3
  15  -1  17 136.041 66.7688   3
  15   1  17 177.689 65.6061   3
  15  -1  18 117.861 70.5323   3
  15   1  18-54.4196 46.0130   3
  15  -1  19 53.0124 51.1976   3
  15   1  19 42.2374 49.4587   3
  15  -1  20 44.8966 57.0744   3
  15   1  20-13.9196 46.9506   3
  15  -1  21 40.7986 59.1746   3
  15   1  21-78.5746 56.8611   3
  15   1  22 80.6013 65.1961   3
  15  -2 -23-151.236 70.6759   2
  15  -2 -22 24.3227 36.6155   2
  15  -2 -21-7.17336 35.2278   2
  15   2 -21-23.1885 45.7900   2
  15  -2 -20 52.7978 50.8811   2
  15   2 -20 21.6378 51.5538   2
  15  -2 -19 125.829 45.4979   2
  15   2 -19 136.886 70.9269   2
  15  -2 -18 38.1019 38.3867   2
  15   2 -18-37.2924 47.4522   2
  15  -2 -17 47.6049 40.5609   2
  15   2 -17-49.1133 35.4093   2
  15  -2 -16 34.0040 36.1572   2
  15   2 -16 45.4918 46.7850   2
  15  -2 -15-7.03194 25.5624   2
  15   2 -15 5.57077 38.2437   2
  15   2 -14-43.6516 45.0525   2
  15  -2 -14-57.7775 45.7481   2
  15   2 -13 487.786 112.852   2
  15  -2 -13 455.342 92.8370   2
  15   2 -12 403.387 99.6521   2
  15  -2 -12 412.217 86.7327   2
  15   2 -11-60.2458 50.8748   2
  15  -2 -11 55.8323 27.8688   2
  15  -2 -10 0.95520 26.3951   2
  15   2 -10 24.5852 26.7444   2
  15   2  -9 1039.94 147.971   2
  15  -2  -9 1071.95 130.102   2
  15   2  -9 1133.77 160.699   3
  15   2  -8 15.5772 29.4789   2
  15   2  -8 76.4145 44.1309   3
  15  -2  -8 19.2910 27.1053   2
 -15   2   8 38.6636 20.0261   2
  15   2  -7 50.1718 34.2795   2
  15   2  -7 69.4713 40.1493   3
  15  -2  -7 90.8499 39.1282   2
 -15   2   7 99.0272 43.4111   2
  15   2  -6 4762.97 318.231   3
 -15   2   6 4187.02 253.671   2
  15   2  -6 4366.93 292.337   2
  15  -2  -6 3870.54 232.687   2
  15   2  -5 314.313 82.8177   3
  15   2  -5 168.255 62.6766   2
  15  -2  -5 183.211 51.0927   2
 -15   2   5 213.830 59.2884   2
  15  -2  -4 3070.10 197.509   2
 -15   2   4 3431.38 227.623   2
  15   2  -4 3371.15 253.758   2
  15  -2  -3 121.364 25.5101   1
  15   2  -3 155.488 59.6821   2
 -15   2   3 101.911 47.7659   2
  15  -2  -3 70.6296 35.0756   2
  15  -2  -2 141.004 25.1079   1
  15   2  -2 212.466 68.1992   2
  15   2  -2 136.958 40.6351   1
 -15   2   2 150.671 48.1100   2
  15  -2  -2 141.104 44.1289   2
  15  -2  -1 293.569 59.1661   2
  15   2  -1 346.590 80.7348   2
 -15   2   1 222.806 58.4878   2
  15   2  -1 333.311 62.2334   1
  15   2   0 2195.42 197.739   2
  15  -2   0 2281.64 164.246   2
 -15   2   0 2156.33 182.001   2
  15   2   0 2375.77 161.131   1
  15   2   1 1270.40 152.133   2
 -15   2  -1 1124.26 132.279   2
  15  -2   1 1141.48 117.690   2
  15   2   1 1214.91 116.318   1
 -15   2  -2 206.458 58.3254   2
  15   2   2 159.742 42.0292   1
  15  -2   2 141.836 43.1909   2
  15   2   2 141.787 56.6017   2
  15   2   3 16.1061 29.6884   2
 -15   2  -3-0.64755 28.2014   2
  15   2   3 5.82509 27.6741   1
  15   2   4 26.9275 33.3820   2
 -15   2  -4 15.1851 22.8928   2
  15   2   5 327.614 76.7281   2
 -15   2  -5 430.539 88.1238   2
  15   2   6 268.238 68.9203   2
 -15   2  -6 357.575 83.8061   2
  15   2   7 141.141 55.7538   2
  15  -2   7 67.4251 47.2496   3
 -15   2  -8-4.77090 12.2930   1
  15  -2   8 29.6551 33.5388   3
  15   2   8 4.70329 21.4044   3
 -15   2  -9 11.4287 13.1128   1
  15  -2   9-71.2352 55.1619   3
  15   2   9 45.2446 31.0303   3
 -15   2 -10 59.7604 26.8015   1
  15  -2  10-5.09295 38.0784   3
  15   2  10 66.2939 41.2881   3
  15  -2  11 118.594 68.4303   3
  15   2  11 78.9974 38.1232   3
 -15   2 -11 84.2580 32.7523   1
  15  -2  12-50.3591 54.5476   3
  15   2  12-14.4560 25.6392   3
  15  -2  13 812.468 146.858   3
  15   2  13 728.525 116.476   3
  15  -2  14-1.56276 50.4264   3
  15   2  14-20.6975 39.3963   3
  15  -2  15-4.35132 44.2520   3
  15   2  15 25.8913 29.7995   3
  15  -2  16 110.757 53.8600   3
  15   2  16 31.1565 37.4434   3
  15  -2  17 78.3664 50.3439   3
  15   2  17-8.98288 27.7005   3
  15  -2  18-27.8555 38.6258   3
  15   2  18 116.653 83.4190   3
  15  -2  19 137.716 65.3112   3
  15   2  19 67.3530 66.8875   3
  15   2  20 89.8007 62.9779   3
  15  -2  20 66.0879 65.4222   3
  15  -3 -21 72.2780 50.8620   2
  15  -3 -20 74.4789 54.1232   2
  15   3 -20 48.8729 55.4881   2
  15  -3 -19-22.7252 40.5717   2
  15   3 -19-24.0506 56.6469   2
  15  -3 -18 154.040 69.9424   2
  15   3 -18 141.434 69.6872   2
  15  -3 -17-29.2625 43.7599   2
  15   3 -17 46.6504 30.3289   2
  15  -3 -16 84.9587 49.1020   2
  15   3 -16-1.67706 53.4571   2
  15   3 -15-18.1092 33.4902   2
  15  -3 -15-10.6102 25.6706   2
  15   3 -14-34.5703 40.8332   2
  15  -3 -14-6.36817 33.0105   2
  15   3 -13 93.5903 63.9388   2
  15  -3 -13 14.8779 27.0869   2
  15  -3 -12 928.473 123.919   2
  15   3 -12 663.452 127.111   2
  15  -3 -11 59.2051 35.5556   2
  15   3 -11 83.4478 40.5715   2
  15   3 -10 558.294 110.281   3
  15  -3 -10 669.649 99.6329   2
  15   3 -10 513.256 113.433   2
  15   3  -9 248.414 82.3657   2
  15   3  -9 196.586 63.3247   3
  15  -3  -9 222.834 56.8773   2
  15   3  -8 24.6909 31.4850   2
  15   3  -8 89.0452 32.1073   3
  15  -3  -8 92.2001 36.3243   2
  15   3  -7 99.7187 54.0203   3
  15   3  -7 31.2779 39.9675   2
 -15   3   7 66.8289 34.9594   2
  15  -3  -7 46.3371 28.4899   2
  15   3  -6 133.408 52.5972   3
  15   3  -6 141.691 57.7492   2
 -15   3   6 81.6544 32.8676   2
  15  -3  -6 70.6452 27.8370   2
  15   3  -5 394.637 82.7347   3
  15   3  -5 374.451 87.1392   2
 -15   3   5 359.494 70.3084   2
  15  -3  -5 372.515 64.8976   2
  15  -3  -4 54.3766 14.2617   1
  15   3  -4 59.7608 42.7249   3
  15   3  -4-44.9336 48.5112   2
 -15   3   4 43.3956 26.1857   2
  15  -3  -4 77.3762 37.1773   2
  15   3  -3 634.139 98.7855   3
  15   3  -3 802.013 128.432   2
  15  -3  -3 684.145 84.2833   2
 -15   3   3 573.824 89.7786   2
  15  -3  -2 32.2018 22.1215   2
  15   3  -2-19.6861 33.5827   3
  15   3  -2 10.1826 23.8912   2
  15   3  -2 20.5600 21.0080   1
 -15   3   2 51.2417 33.3813   2
  15   3  -1 877.877 100.717   1
  15   3  -1 1175.31 149.980   2
 -15   3   1 908.519 110.905   2
  15  -3  -1 1030.46 102.876   2
  15   3   0 544.978 82.9911   1
  15  -3   0 521.414 76.3243   2
  15   3   0 651.775 110.672   2
 -15   3   0 485.179 81.8778   2
 -15   3  -1 62.9843 30.9767   2
  15   3   1 66.5074 44.7021   2
  15   3   1 50.1776 33.8567   1
  15   3   2 2080.74 196.448   2
  15   3   2 1894.27 160.909   1
 -15   3  -2 1757.41 164.123   2
  15   3   3 3773.52 2630.45   2
  15   3   3 4140.08 2474.55   1
  15   3   4 1023.67 102.783   3
  15   3   4 1140.86 148.381   2
 -15   3  -4 1077.15 133.601   2
  15   3   5-44.0454 42.7271   2
 -15   3  -5 10.0861 30.4223   2
  15   3   5-7.57928 19.7180   3
 -15   3  -6 6874.01 351.037   2
  15   3   6 7240.36 277.452   3
  15   3   6 7948.20 388.483   2
  15   3   7-34.0901 37.6277   2
  15  -3   7-72.0290 57.2158   3
 -15   3  -7 62.6032 39.0286   2
 -15   3  -8 1401.89 100.879   1
  15  -3   8 1158.89 161.268   3
  15   3   8 1228.91 159.018   2
  15  -3   9 646.016 127.296   3
 -15   3  -9 477.826 67.3401   1
  15  -3  10 48.1431 51.6477   3
  15   3  10 34.2364 39.6884   3
 -15   3 -10 9.63875 13.1091   1
  15  -3  11 32.9369 42.3950   3
 -15   3 -11 33.4565 25.8668   1
  15   3  11 2.79241 29.0210   3
  15  -3  12 316.147 92.4502   3
  15   3  12 459.325 84.6339   3
  15  -3  13-30.2844 48.2339   3
  15   3  13-19.9931 22.7641   3
  15  -3  14 309.919 102.187   3
  15   3  14 225.693 66.4669   3
  15  -3  15 45.9797 29.6361   3
  15   3  15-30.4792 40.4123   3
  15  -3  16 84.9649 46.0686   3
  15   3  16 46.6359 38.4959   3
  15   3  17 29.2120 31.5862   3
  15  -3  17 50.4660 44.8021   3
  15   3  18 94.6509 56.6432   3
  15  -3  18 166.432 93.1933   3
  15  -3  19-16.7986 51.1142   3
  15   4 -19-29.3179 44.7732   2
  15   4 -18 121.269 78.4604   2
  15  -4 -17 80.4967 42.2704   2
  15   4 -17 67.4063 61.0867   2
  15   4 -16 199.656 83.5487   2
  15  -4 -16 360.077 85.0761   2
  15   4 -15 12.8634 28.6230   2
  15  -4 -15 49.3383 38.6578   2
  15   4 -14 41.2388 39.6276   2
  15  -4 -14 120.147 47.1750   2
  15   4 -13 128.028 68.0265   2
  15  -4 -13 43.7186 25.0760   2
  15  -4 -12 5.49609 18.5066   2
  15   4 -12-35.9504 49.7215   2
  15  -4 -11 115.808 40.6188   2
  15   4 -11 106.209 49.7577   2
  15  -4 -10 62.8662 23.2771   2
  15   4 -10 76.9803 56.8535   3
  15   4 -10 33.5067 43.2035   2
  15   4  -9 127.045 49.7342   2
  15  -4  -9 56.7972 28.1491   2
  15   4  -9 53.7373 23.8113   3
  15   4  -8 360.518 95.3477   2
  15  -4  -8 285.634 55.7583   2
  15   4  -8 192.007 55.6281   3
  15   4  -7 143.217 66.8530   2
  15  -4  -7 103.261 31.8462   2
  15   4  -7 106.206 39.8360   3
  15   4  -6 129.057 45.7533   3
  15   4  -6 131.390 59.7932   2
  15  -4  -6 87.0745 31.2373   2
  15   4  -5 125.671 40.3240   3
  15   4  -5 82.8157 51.3184   2
 -15   4   5 106.925 31.4806   2
  15  -4  -5 131.256 34.8753   2
  15   4  -4-8.65772 17.5120   3
  15  -4  -4 44.0294 23.8212   2
  15   4  -4-41.1282 43.2726   2
 -15   4   4 13.3196 23.2446   2
  15   4  -3 205.430 48.5517   3
  15  -4  -3 223.251 43.5389   2
  15   4  -3 235.956 69.0368   2
 -15   4   3 185.761 45.6753   2
  15   4  -2 104.236 36.1886   3
  15   4  -2 163.394 49.4664   1
  15  -4  -2 79.7485 30.7379   2
  15   4  -2 19.6339 36.0319   2
 -15   4   2 114.154 35.9195   2
  15   4  -1 34.9960 30.4220   1
  15   4  -1 58.3194 27.2751   3
  15   4  -1-69.6563 48.6684   2
 -15   4   1 44.4237 27.5437   2
  15   4   0 47.7720 23.6326   3
  15   4   0-10.7947 26.9171   1
  15   4   0 16.0371 31.3124   2
 -15   4   0-16.9066 17.5895   2
  15   4   1 168.916 37.4940   3
  15   4   1 206.533 66.7668   2
  15   4   1 157.705 49.6827   1
 -15   4  -1 202.370 52.1664   2
 -15   4  -2 96.8968 38.1222   2
  15   4   2 94.4875 31.5078   3
  15   4   2 144.754 54.6035   1
  15   4   2 156.269 63.6601   2
 -15   4  -3 529.918 88.4099   2
  15   4   3 707.922 100.994   1
  15   4   3 558.644 59.5784   3
  15   4   3 488.596 102.358   2
  15   4   4-78.1659 50.5233   2
 -15   4  -4 14.2848 34.6151   2
  15   4   4 7.46527 12.4622   3
  15   4   4-56.0947 54.3720   1
  15   4   5 526.393 101.166   2
 -15   4  -5 559.698 95.7654   2
  15   4   5 633.828 66.1826   3
  15   4   6 278.273 79.9017   2
 -15   4  -6 142.224 49.6942   2
  15   4   6 173.993 38.0176   3
  15   4   7 318.611 80.7570   2
  15  -4   7 160.070 64.9868   3
 -15   4  -7 236.806 65.6111   2
  15   4   7 218.952 42.6382   3
  15   4   8 21.6520 30.2529   2
  15  -4   8 62.1103 55.3120   3
  15   4   8 120.614 33.0773   3
  15  -4   9 252.184 78.7647   3
  15   4   9 233.299 47.8855   3
  15  -4  10 668.723 133.517   3
  15   4  10 843.966 94.7953   3
  15  -4  11 85.6357 74.2304   3
  15  -4  12 78.0571 66.9797   3
  15   4  13 32.2354 22.1098   3
  15  -4  13 55.8509 53.1741   3
  15   4  14 338.921 73.1112   3
  15  -4  14 359.326 107.694   3
  15  -4  15 29.2095 41.9789   3
  15  -4  16 253.363 102.532   3
  15  -4  17 104.043 75.9594   3
  15   5 -18-51.2673 52.1846   2
  15   5 -17 64.4274 51.5025   2
  15   5 -16-79.8634 54.7834   2
  15   5 -15 296.440 103.783   2
  15   5 -14-54.8648 44.2730   2
  15   5 -13 761.959 150.007   2
  15  -5 -12 108.693 38.8119   2
  15   5 -12 96.3958 46.9297   2
  15  -5 -11 438.299 66.5690   2
  15   5 -11 469.301 102.790   3
  15   5 -11 512.873 119.594   2
  15   5 -10-0.77634 29.8961   2
  15  -5 -10 34.2980 23.6655   2
  15   5 -10 16.2022 23.2310   3
  15   5  -9 825.932 144.549   2
  15  -5  -9 763.029 76.2668   2
  15   5  -9 637.413 103.977   3
  15   5  -8 474.514 115.324   2
  15  -5  -8 360.086 49.0104   2
  15   5  -8 356.352 72.1025   3
  15   5  -7-37.4489 44.8733   2
  15   5  -7 0.77550 14.7501   3
  15  -5  -7-12.1769 12.8541   2
  15  -5  -6 51.7227 18.3809   2
  15   5  -6 62.0174 43.8821   2
  15   5  -6 36.3075 21.9843   3
  15   5  -5 77.6869 51.3829   2
  15  -5  -5 94.4140 22.1108   2
  15   5  -5 79.9960 34.3926   3
  15   5  -4 1034.89 155.630   2
  15   5  -4 989.594 95.5916   3
 -15   5   3 73.8432 26.3824   2
  15   5  -3 111.981 54.5292   2
  15   5  -3 60.0762 37.5444   1
  15   5  -3 79.2727 29.7685   3
  15   5  -2-22.7628 34.8439   2
 -15   5   2-5.10171 12.8820   2
  15   5  -2 17.5676 12.0150   3
  15   5  -2-2.83109 31.4821   1
  15   5  -1-4.47796 34.2814   2
 -15   5   1-21.8246 25.1082   2
  15   5  -1 24.9248 12.8427   3
  15   5  -1-0.14073 29.5352   1
  15   5   0 170.450 53.9275   1
  15   5   0 218.781 76.3600   2
  15   5   0 169.589 25.2315   3
 -15   5   0 154.396 43.0848   2
  15   5   1 134.693 57.2000   2
 -15   5  -1 152.954 40.4022   2
  15   5   1 103.657 42.6802   1
 -15   5  -2 205.155 50.4927   2
  15   5   2 198.124 59.7860   1
  15   5   2 237.279 78.5487   2
 -15   5  -3-8.06507 16.3252   2
  15   5   3 49.5703 37.1200   1
  15   5   3 25.7539 45.4823   2
  15   5   4 199.824 61.6591   1
  15   5   4 116.822 55.1168   2
 -15   5  -4 169.294 48.4727   2
  15   5   5 349.828 91.0696   2
 -15   5  -5 273.809 63.2938   2
  15   5   6-38.9853 28.5382   2
 -15   5  -6 35.2204 31.0999   2
  15   5   7 819.257 131.903   2
  15  -5   7 634.640 128.030   3
 -15   5  -7 498.324 95.3018   2
  15   5   8 18.6623 12.2887   3
  15   5   8 8.28083 31.5628   2
  15  -5   8 40.6226 64.2245   3
 -15   5  -8 76.3423 45.7844   2
  15  -5   9 530.017 123.596   3
  15  -5  10 13.5138 34.2658   3
  15  -5  11 126.851 70.1345   3
  15  -5  12 89.5050 55.2731   3
  15  -5  13-26.9617 44.8606   3
  15  -5  14-56.3365 35.2984   3
  15  -5  15 160.546 79.3862   3
  15  -5  16 9.33430 37.1903   3
  15   6 -16-74.9824 61.6760   2
  15   6 -15-0.32722 49.7167   2
  15   6 -14 10.4536 37.0240   2
  15   6 -13 260.117 90.6119   2
  15   6 -12 112.596 61.4291   2
  15   6 -11 205.340 86.5990   2
  15   6 -10 86.2054 62.6926   2
  15   6  -9 476.978 116.087   2
  15   6  -8-56.0357 63.7074   2
  15   6  -7 36.4924 35.8507   2
  15   6  -6 227.498 73.9289   2
  15   6  -5 350.043 98.5358   2
  15   6  -5 125.442 34.2225   3
  15   6  -4 36.5500 50.5802   2
  15   6  -4-10.5540 12.9279   3
  15   6  -3 227.848 74.4633   2
  15   6  -3 285.129 34.2737   3
  15   6  -3 408.941 83.0365   1
  15   6  -2 360.453 83.2336   1
  15   6  -2 273.788 84.1460   2
 -15   6   1 458.362 49.9381   2
  15   6  -1 406.755 100.005   2
  15   6  -1 506.037 90.2095   1
  15   6   0 669.818 107.026   1
 -15   6   0 671.470 69.4044   2
  15   6   0 555.210 117.593   2
  15   6   1 2781.26 253.799   2
 -15   6  -1 2737.53 150.984   2
  15   6   1 2253.44 206.035   1
  15   6   2 6.18571 33.1105   1
  15   6   2 7.16399 29.3703   2
  15   6   3 961.270 142.344   1
 -15   6  -3 623.644 82.4071   2
  15   6   3 943.897 147.720   2
  15   6   4 178.081 68.4220   1
  15   6   4 68.6199 32.3700   2
 -15   6  -4 81.0838 35.4550   2
  15   6   5 134.589 52.3344   2
  15   6   6 183.735 63.5289   2
  15   6   7 102.218 51.7386   2
  15  -6   7 118.933 61.1893   3
  15   6   8-169.315 65.4476   2
  15  -6   8-47.8736 56.5245   3
  15  -6   9 136.087 67.8689   3
  15  -6  10 150.623 74.8567   3
  15  -6  11 47.9679 51.7193   3
  15  -6  12-7.52328 54.2399   3
  15  -6  13-13.6141 42.7929   3
  15  -6  14 107.413 68.3604   3
  15   7 -15 0.35269 47.3699   2
  15   7 -14 39.3152 46.4689   2
  15   7 -13 25.0893 39.9630   2
  15   7 -12 149.694 78.6636   2
  15   7 -11-148.942 88.3976   2
  15   7 -10-5.41358 34.0019   2
  15   7  -9 41.6899 35.9385   2
  15   7  -8-14.7340 28.4359   2
  15   7  -7 48.5890 50.6574   2
  15   7  -6-36.7766 35.2508   2
  15   7  -5-15.1928 49.5068   2
  15   7  -4 57.6398 47.9853   2
  15   7  -4-10.3424 26.2855   1
  15   7  -3-12.4317 41.5494   2
  15   7  -3 10.2137 33.2573   1
  15   7  -2 10.1392 26.6890   1
  15   7  -2 8.48232 28.0146   2
  15   7  -1-10.2672 36.8532   1
  15   7  -1 25.3390 45.1340   2
  15   7   0 58.9951 53.9815   1
  15   7   0-53.6734 48.9784   2
  15   7   1 18.5765 40.7781   2
  15   7   1 51.6289 39.9830   1
  15   7   2 36.7393 43.3712   1
  15   7   2 128.852 56.6833   2
  15   7   3 234.787 67.6449   1
  15   7   3 281.227 83.0311   2
  15   7   4 274.834 73.2740   1
  15   7   4 273.370 81.0146   2
  15   7   5 70.9072 48.1230   2
  15   7   6 120.558 58.4708   2
  15   7   7 232.792 81.9299   2
  15  -7   7 150.045 74.4696   3
  15   7   8 722.999 134.361   2
  15  -7   8 727.778 151.477   3
  15   7   9 0.96384 40.5000   2
  15  -7   9 35.2082 43.0991   3
  15  -7  10 51.4437 36.4555   3
  15  -7  11-41.5017 54.7250   3
  15  -7  12 23.5764 49.1457   3
  15   8 -12 135.790 76.8470   2
  15   8 -11-13.7178 34.9549   2
  15   8 -10-32.9141 43.6989   2
  15   8  -9 139.227 72.6463   2
  15   8  -8 4.27275 39.4307   2
  15   8  -7-30.4014 46.2402   2
  15   8  -6 301.561 92.1755   2
  15   8  -5 145.650 65.6508   1
  15   8  -5 107.274 51.6354   2
  15   8  -4 46.0709 36.6556   1
  15   8  -4 71.6000 54.7381   2
  15   8  -3 53.9572 40.5678   1
  15   8  -3 70.1163 45.2141   2
  15   8  -2-44.9876 61.6472   2
  15   8  -2-41.0415 31.3866   1
  15   8  -1-71.1892 51.2005   1
  15   8  -1-57.3167 51.0806   2
  15   8   0 228.623 71.0764   1
  15   8   0 217.315 80.3924   2
  15   8   1 63.4624 38.3981   1
  15   8   1-18.0903 56.4708   2
  15   8   2 395.886 94.2517   1
  15   8   2 343.363 96.8159   2
  15   8   3 13.9949 32.5464   2
  15   8   3 0.67970 35.5659   1
  15   8   4-22.7014 57.4443   2
  15   8   4 42.7016 43.0674   1
  15   8   5 125.906 56.5416   2
  15   8   6-49.3214 35.4025   2
  15  -8   6 105.480 80.8068   3
  15   8   7-9.87350 26.3461   2
  15  -8   7 54.9316 50.6540   3
  15   8   8-2.53609 29.9362   2
  15  -8   8-140.290 74.4889   3
  15  -8   9 211.128 87.1006   3
  15  -8  10-31.2017 66.5131   3
  15   9 -10 47.9159 55.5837   2
  15   9  -9 152.053 86.2855   2
  15   9  -8 222.260 95.0648   2
  15   9  -7-19.3855 29.8632   2
  15   9  -6 268.505 95.3080   2
  15   9  -6 306.134 81.8229   1
  15   9  -5 17.4507 28.3532   1
  15   9  -5-69.6857 56.0073   2
  15   9  -4 127.628 56.2918   1
  15   9  -4 10.9709 27.9461   2
  15   9  -3-8.99047 32.5595   2
  15   9  -3 16.9560 30.6539   1
  15   9  -2 35.9501 28.2316   1
  15   9  -2 42.3918 39.9873   2
  15   9  -1 78.9912 56.3095   1
  15   9  -1 114.168 65.6164   2
  15   9   0-12.2733 27.3529   2
  15   9   0-4.15936 47.9406   1
  15   9   1-37.1946 36.7740   1
  15   9   1-46.3508 49.6142   2
  15   9   2 56.4429 49.8928   1
  15   9   2 22.6957 28.3583   2
  15   9   3 2.40922 27.8714   2
  15   9   3-29.3004 50.6291   1
  15   9   4 99.5346 54.0949   2
  15   9   4 46.5161 41.7450   1
  15   9   5 418.248 109.369   2
  15   9   6 201.195 78.5398   2
  15  -9   6 300.389 118.982   3
  15   9   7 118.195 64.3571   2
  15   9   8 40.8995 44.2685   2
  15  10  -5 145.052 72.7623   2
  15  10  -4-132.612 71.2608   2
  15  10  -3 2.74654 32.9182   2
  15  10  -2-112.091 63.2046   2
  15  10  -1 89.5720 64.1228   2
  15  10   0 0.29733 29.6484   2
  15  10   1 10.2302 29.5196   2
  15  10   2 115.143 63.1785   2
  15  10   3 33.2852 54.4059   2
  15  10   4 30.9683 30.4963   2
  15  10   5 74.0127 53.1905   2
  16   0 -22 232.253 101.027   2
  16   0 -21 22.4860 39.2688   2
  16   0 -20-50.0048 44.0941   2
  16   0 -19-23.7440 31.6274   2
  16   0 -18-9.59170 36.8573   2
  16   0 -17 35.7973 42.2360   2
  16   0 -16 84.5126 56.0488   2
  16   0 -15 24.3656 30.6381   2
  16   0 -14 267.906 74.7606   2
  16   0 -13-13.2183 38.7381   2
  16   0 -12 167.238 63.6791   2
  16   0 -11-64.3917 46.7234   2
  16   0 -10 74.3524 40.7434   2
  16   0  -9-32.4794 29.1395   2
  16   0  -8 67.3853 43.9233   2
  16   0  -7-16.0059 38.0456   2
 -16   0   7 49.2468 46.1039   2
  16   0  -6 27.7411 30.4089   2
 -16   0   6-4.35191 41.7723   2
  16   0  -5-3.06602 25.5993   2
 -16   0   5 42.7419 40.0343   2
  16   0  -4 48.8372 33.6400   2
 -16   0   4 5.15111 31.1408   2
  16   0  -3 9.53174 20.8685   1
  16   0  -3-19.2574 29.3362   2
 -16   0   3-25.0001 20.7978   2
  16   0  -2 145.190 39.1072   1
  16   0  -2 63.2658 36.1717   2
 -16   0   2 106.996 49.6126   2
  16   0  -1-36.0061 36.5293   2
 -16   0   1-37.4951 40.0162   2
  16   0  -1-19.5589 26.9161   1
  16   0   0 109.945 31.9526   1
 -16   0   0 158.542 57.1392   2
  16   0   0 69.9455 35.7878   2
  16   0   1-7.33230 30.0707   2
  16   0   1 16.0011 20.2349   1
 -16   0  -1 39.3925 49.6267   2
  16   0   2-19.6022 31.3049   2
  16   0   3 11.9439 28.8836   2
  16   0   4 80.4793 43.5268   2
  16   0   5 42.8908 38.6173   2
  16   0   6 1515.35 160.864   3
  16   0   7 0.69235 33.7252   3
  16   0   8 1453.66 167.486   3
 -16   0  -9 13.1757 25.4770   1
  16   0   9 45.6194 39.5861   3
  16   0  10 357.383 90.7897   3
  16   0  11 83.3688 57.0609   3
  16   0  12 1330.67 172.409   3
  16   0  13-0.67715 28.0970   3
  16   0  14 246.812 86.8734   3
  16   0  15-64.5591 48.3857   3
  16   0  16 172.256 71.0368   3
  16   0  17-27.4693 35.5603   3
  16   0  18 106.245 68.8905   3
  16   0  19-40.2635 43.3031   3
  16   0  20-81.3720 59.5717   3
  16   0  21 36.1129 38.2117   3
  16  -1 -23-82.6369 57.2437   2
  16  -1 -22 2.45620 46.8953   2
  16   1 -22-215.848 89.4624   2
  16  -1 -21-92.6949 58.6332   2
  16   1 -21 42.7893 46.9196   2
  16  -1 -20 95.5839 67.0922   2
  16   1 -20 60.9389 54.9370   2
  16  -1 -19-6.56516 39.8059   2
  16   1 -19 33.6131 28.9249   2
  16  -1 -18-79.4203 52.5082   2
  16   1 -18 9.38532 41.8730   2
  16  -1 -17 157.889 76.5422   2
  16   1 -17 94.1327 54.0490   2
  16   1 -16 25.0750 33.7472   2
  16  -1 -16 6.84725 34.3935   2
  16   1 -15-27.0478 43.3669   2
  16  -1 -15 10.4758 30.2344   2
  16   1 -14 181.618 73.0381   2
  16  -1 -14 212.349 75.7197   2
  16   1 -13 527.595 121.315   2
  16  -1 -13 646.931 124.065   2
  16   1 -12 616.893 121.967   2
  16  -1 -12 907.568 135.620   2
  16   1 -11 145.737 56.1160   2
  16  -1 -11 339.573 83.2168   2
  16   1 -10 141.021 63.9451   2
  16  -1 -10 47.4406 31.7593   2
  16   1  -9 895.469 138.477   2
  16  -1  -9 782.015 123.877   2
 -16   1   9 896.567 133.528   2
  16   1  -8 53.0854 50.2639   2
  16  -1  -8-25.7830 30.8895   2
 -16   1   8 3.58467 36.3069   2
  16   1  -7 60.1013 37.1579   2
  16   1  -7 50.8945 44.0194   3
  16  -1  -7 68.9673 37.4267   2
 -16   1   7 122.309 54.4783   2
  16   1  -6-9.08959 32.1841   2
  16  -1  -6 89.1518 41.2103   2
 -16   1   6 52.6930 36.1430   2
  16   1  -5 159.648 64.0766   2
  16  -1  -5 258.704 70.5722   2
 -16   1   5 306.376 77.2158   2
  16   1  -4 233.925 69.0049   2
  16  -1  -4 270.374 66.9842   2
 -16   1   4 296.976 73.9624   2
  16   1  -3 227.560 62.5134   2
  16  -1  -3 184.379 58.7793   2
 -16   1   3 277.830 72.8546   2
  16  -1  -3 213.402 37.9524   1
  16   1  -3 209.081 45.0145   1
  16   1  -2-0.71165 17.2794   1
  16   1  -2-38.0156 43.6900   2
 -16   1   2 35.0170 31.6996   2
  16  -1  -2 6.29871 19.1619   2
  16  -1  -2 14.0119 13.7370   1
  16  -1  -1 280.180 46.2866   1
  16   1  -1 291.996 53.2086   1
  16   1  -1 353.756 80.7423   2
 -16   1   1 440.213 86.9461   2
  16  -1  -1 319.187 73.6538   2
  16   1   0 1070.09 136.258   2
  16  -1   0 1067.61 123.653   2
 -16   1   0 1129.56 142.085   2
  16   1   0 1073.12 106.959   1
  16  -1   1 318.325 66.5436   2
  16   1   1 344.482 61.1339   1
  16   1   1 386.043 82.2722   2
 -16   1  -1 290.086 73.8841   2
  16   1   2 1978.15 185.459   2
  16   1   2 1954.71 150.039   1
  16  -1   2 1950.86 167.908   2
 -16   1  -2 1877.09 192.399   2
 -16   1  -3 296.115 78.4062   2
  16   1   3 445.882 87.6846   2
  16  -1   3 243.625 62.9337   2
  16   1   4 943.738 127.021   2
  16  -1   4 939.579 120.417   2
  16   1   5 1769.06 159.867   3
  16   1   5 1616.99 168.498   2
  16   1   6 431.489 92.7346   2
  16   1   6 438.112 83.8424   3
  16  -1   7 54.0161 33.7768   3
  16   1   7-15.9527 34.7307   3
  16  -1   8 1.95095 25.2473   3
  16   1   8-22.3195 39.8928   3
 -16   1  -9-37.1010 27.4299   1
  16  -1   9 11.1088 38.5340   3
  16   1   9 15.8218 27.6174   3
 -16   1 -10 127.253 44.9299   1
  16  -1  10 286.159 91.1297   3
  16   1  10 140.219 53.1627   3
  16  -1  11 744.872 139.276   3
  16   1  11 906.133 131.709   3
  16  -1  12 224.069 81.4820   3
  16   1  12 268.799 77.8501   3
  16  -1  13 52.7626 44.1466   3
  16   1  13-3.90948 27.8666   3
  16  -1  14 139.964 66.6687   3
  16   1  14 140.808 58.6927   3
  16  -1  15-42.6889 43.9115   3
  16   1  15 0.69029 26.8867   3
  16  -1  16-53.1139 30.5738   3
  16   1  16 34.0187 51.0920   3
  16  -1  17 52.1721 46.7284   3
  16   1  17-11.0211 30.4421   3
  16  -1  18 120.937 61.5954   3
  16   1  18 61.6270 48.2095   3
  16  -1  19 39.2644 61.3589   3
  16   1  19 43.6208 43.4705   3
  16  -1  20 63.1928 59.7779   3
  16   1  20 134.203 75.4459   3
  16   1  21 12.0804 52.7188   3
  16  -2 -23 51.2041 47.8908   2
  16  -2 -22 34.2052 54.9891   2
  16  -2 -21 75.6308 43.9384   2
  16   2 -21 90.5344 61.9192   2
  16  -2 -20 24.4068 27.7671   2
  16   2 -20-22.0352 37.0765   2
  16  -2 -19-7.63219 34.8144   2
  16   2 -19-52.4260 49.2299   2
  16  -2 -18 84.7187 53.0613   2
  16   2 -18 26.9623 46.9413   2
  16  -2 -17-1.88813 49.2900   2
  16   2 -17 3.39510 29.5173   2
  16   2 -16-47.5501 35.8164   2
  16  -2 -16 21.0362 38.7339   2
  16   2 -15 115.849 48.4134   2
  16  -2 -15 196.589 69.1287   2
  16   2 -14 54.8890 43.8196   2
  16  -2 -14 7.19661 35.5222   2
  16   2 -13 1164.71 172.964   2
  16  -2 -13 1288.43 161.057   2
  16   2 -12 56.1454 43.6918   2
  16  -2 -12 6.56705 26.7306   2
  16  -2 -11 604.324 103.801   2
  16   2 -11 620.476 122.855   2
  16   2 -10-33.7054 49.3196   2
  16  -2 -10-31.8889 26.5526   2
  16   2  -9 777.429 131.225   2
  16  -2  -9 647.256 105.728   2
  16   2  -8-28.0136 28.3087   2
  16   2  -8 20.8654 34.7403   3
  16  -2  -8-3.23559 28.9665   2
 -16   2   8 21.0938 25.0137   2
  16   2  -7 377.998 95.8934   3
  16   2  -7 377.252 91.0203   2
  16  -2  -7 374.010 77.2428   2
 -16   2   7 402.526 81.6031   2
  16   2  -6 505.555 110.622   3
  16   2  -6 410.437 93.3321   2
  16  -2  -6 305.909 65.3237   2
 -16   2   6 489.842 92.3701   2
  16   2  -5 17.3086 36.7160   3
  16   2  -5-29.7984 31.2474   2
 -16   2   5-68.4650 34.6192   2
  16  -2  -5 35.4975 30.6837   2
  16  -2  -4 1837.92 97.2674   1
  16  -2  -4 1484.47 140.014   2
 -16   2   4 1510.08 158.158   2
  16   2  -4 1635.08 181.181   2
  16   2  -3 52.7894 41.5298   2
 -16   2   3 103.248 46.4904   2
  16  -2  -3 58.0133 30.4611   2
  16  -2  -3 39.1596 19.5269   1
  16   2  -2 204.577 64.3874   2
  16   2  -2 120.021 35.9983   1
 -16   2   2 188.277 59.0074   2
  16  -2  -2 130.433 45.5811   2
  16  -2  -2 103.952 24.1222   1
  16  -2  -1 175.933 53.7147   2
  16   2  -1 160.069 45.2340   1
  16   2  -1 147.937 55.4859   2
 -16   2   1 146.841 49.2308   2
 -16   2   0 742.912 111.993   2
  16  -2   0 810.076 106.408   2
  16   2   0 815.275 125.855   2
  16   2   0 773.118 98.7072   1
  16  -2   1 154.177 45.5231   2
  16   2   1 174.773 49.1884   1
  16   2   1 146.146 54.7930   2
 -16   2  -1 129.924 48.5590   2
 -16   2  -2 172.675 57.9141   2
  16   2   2 104.978 42.9534   1
  16  -2   2 160.410 48.5521   2
  16   2   2 173.857 59.6948   2
  16   2   3 389.573 83.7331   2
 -16   2  -3 378.663 83.8108   2
  16   2   4 229.332 63.2629   2
 -16   2  -4 181.604 58.3600   2
  16   2   5 93.0253 48.4264   2
 -16   2  -5 115.095 50.2635   2
  16   2   6 143.005 53.4394   2
  16   2   6 115.780 43.2180   3
  16   2   7 789.745 123.534   2
  16  -2   7 626.387 115.589   3
  16   2   7 721.509 103.235   3
  16  -2   8 38.5334 39.7082   3
  16   2   8 49.5329 42.9201   3
  16  -2   9-35.2065 34.1563   3
 -16   2  -9 63.3316 28.2886   1
  16   2   9 94.3218 45.9959   3
  16  -2  10-23.8089 39.7852   3
  16   2  10-43.7201 38.3806   3
 -16   2 -10-0.86575 12.7281   1
  16  -2  11 187.261 75.5196   3
  16   2  11 142.694 55.0382   3
  16  -2  12-21.8096 40.5954   3
  16   2  12 24.1227 31.1207   3
  16  -2  13 141.531 71.4906   3
  16   2  13 65.0870 41.4583   3
  16  -2  14 74.9964 60.1502   3
  16   2  14 43.6123 23.5547   3
  16  -2  15 58.2411 48.9560   3
  16   2  15 49.0330 31.0952   3
  16  -2  16 8.80814 44.4711   3
  16   2  16 8.72061 30.4832   3
  16  -2  17 95.9053 54.2469   3
  16   2  17 56.2569 40.7858   3
  16  -2  18-70.1317 62.0496   3
  16   2  18 16.3886 31.8520   3
  16  -2  19 36.8341 50.5552   3
  16   2  19 22.4076 42.1115   3
  16  -3 -20-14.4321 24.6758   2
  16   3 -20-32.6008 43.3794   2
  16  -3 -19 82.6169 48.0205   2
  16   3 -19 18.1827 36.9710   2
  16  -3 -18 103.618 62.8173   2
  16   3 -18 78.8331 57.6875   2
  16   3 -17 64.2209 54.7602   2
  16  -3 -17-43.4169 33.7664   2
  16   3 -16 70.6212 39.6745   2
  16  -3 -16 94.9098 46.5702   2
  16   3 -15-5.57052 39.0976   2
  16  -3 -15-58.6382 51.3877   2
  16   3 -14 9.96135 36.0641   2
  16  -3 -14 122.642 53.2052   2
  16   3 -13 173.680 74.3568   2
  16  -3 -13 55.6583 39.0070   2
  16  -3 -12 118.818 38.0342   2
  16   3 -12 156.112 78.9569   2
  16  -3 -11 74.9303 42.4686   2
  16   3 -11 67.8070 46.9864   2
  16   3 -10 262.113 90.2532   2
  16  -3 -10 303.679 69.9005   2
  16   3  -9 240.277 74.5955   3
  16   3  -9 343.664 90.9183   2
  16  -3  -9 322.564 67.3357   2
  16   3  -8 316.458 84.9144   3
  16   3  -8 262.045 81.7164   2
  16  -3  -8 292.156 63.4009   2
  16   3  -7 252.133 71.2570   3
  16   3  -7 267.046 77.3537   2
 -16   3   7 276.859 67.0036   2
  16  -3  -7 246.799 57.2185   2
  16   3  -6 22.2674 20.0038   3
  16   3  -6 10.7980 26.8822   2
 -16   3   6 20.5182 25.4061   2
  16  -3  -6 12.7106 23.5916   2
  16  -3  -5 370.098 36.4704   1
  16   3  -5 306.819 74.2734   3
  16   3  -5 383.189 94.9889   2
 -16   3   5 277.048 64.1171   2
  16  -3  -5 298.606 60.2742   2
  16   3  -4-41.2853 28.3976   3
  16  -3  -4 29.3383 10.0091   1
  16   3  -4 3.74993 36.3476   2
 -16   3   4 10.4000 18.8671   2
  16  -3  -4-1.89210 15.1721   2
  16   3  -3 1541.79 178.221   2
  16   3  -3 1554.58 162.935   3
 -16   3   3 1599.81 153.502   2
  16  -3  -3 1495.31 128.129   2
  16   3  -3 1414.06 138.818   1
  16   3  -2 745.459 122.267   2
  16  -3  -2 729.402 90.5497   2
 -16   3   2 671.092 99.9043   2
  16   3  -2 601.735 86.1689   1
  16  -3  -1 22.1762 21.5090   2
  16   3  -1-38.1013 42.5980   2
  16   3  -1 66.3062 38.5945   1
 -16   3   1 46.0766 29.3710   2
  16   3   0 489.581 81.3913   1
  16  -3   0 568.555 79.9092   2
  16   3   0 513.137 107.337   2
 -16   3   0 518.624 88.6180   2
  16   3   1 4739.22 306.460   2
 -16   3  -1 4300.12 262.986   2
  16   3   1 4746.53 251.545   1
 -16   3  -2 425.428 83.0579   2
  16   3   2 456.731 83.0848   1
  16   3   2 477.211 100.548   2
  16   3   3 232.922 63.1379   1
 -16   3  -3 234.803 64.4623   2
  16   3   3 352.529 63.3459   3
  16   3   4 12.0648 28.7278   2
  16   3   4-5.51506 23.9117   3
  16   3   5 202.693 64.2787   2
 -16   3  -5 270.503 70.1140   2
  16   3   5 250.746 54.6634   3
  16   3   6 10.5526 29.0852   2
 -16   3  -6-11.1281 24.5869   2
  16   3   7 463.364 100.184   2
  16  -3   7 322.701 90.4205   3
  16  -3   8-8.23854 41.3318   3
  16  -3   9 13.4007 51.4668   3
  16  -3  10-24.0428 38.3963   3
  16   3  10 3.92428 29.6399   3
  16  -3  11 118.971 68.8594   3
  16   3  11 53.8274 32.6991   3
  16  -3  12 129.641 67.2410   3
  16   3  12 163.567 48.5177   3
  16  -3  13 116.575 67.5817   3
  16   3  13 23.4365 26.3254   3
  16  -3  14 281.459 95.6975   3
  16   3  14 92.6890 45.3964   3
  16  -3  15 80.2582 61.3548   3
  16   3  15 9.10533 25.0753   3
  16  -3  16 65.8012 72.3841   3
  16   3  16-13.7659 29.9102   3
  16  -3  17-121.238 69.2482   3
  16  -3  18-135.249 73.9016   3
  16   4 -18-2.97276 30.6942   2
  16   4 -17 44.6404 46.8476   2
  16   4 -16 79.5416 66.8402   2
  16  -4 -16 176.486 54.8627   2
  16   4 -15 119.028 66.1828   2
  16  -4 -15 48.3230 29.7101   2
  16   4 -14 436.077 112.610   2
  16  -4 -14 412.125 88.3578   2
  16  -4 -13 12.6491 28.9010   2
  16   4 -13 10.1954 40.7293   2
  16  -4 -12-33.8872 27.9747   2
  16   4 -12 44.0785 48.1310   2
  16  -4 -11 23.9709 19.4100   2
  16   4 -11 24.2066 38.3923   2
  16   4 -10 399.399 104.238   2
  16  -4 -10 349.313 65.2015   2
  16   4 -10 341.566 85.7031   3
  16  -4  -9-9.01832 20.9157   2
  16   4  -9-10.4792 23.5250   3
  16   4  -8 45.8209 45.9415   2
  16  -4  -8 10.6060 19.7253   2
  16   4  -8-10.9075 17.8869   3
  16   4  -7 233.407 64.9311   3
  16   4  -7 215.312 71.4778   2
  16  -4  -7 261.151 54.4658   2
  16   4  -6 219.641 59.4560   3
  16   4  -6 172.794 60.4374   2
  16  -4  -6 243.620 19.1708   1
  16  -4  -6 289.135 54.1446   2
  16   4  -5 436.693 76.8859   3
  16   4  -5 285.011 82.9765   2
 -16   4   5 420.224 71.4150   2
  16  -4  -5 435.866 63.9584   2
  16   4  -4 6.77358 21.1091   3
  16  -4  -4 2.05778 13.0423   2
  16   4  -4-10.4582 33.4668   2
 -16   4   4 7.17891 23.6677   2
  16   4  -3 52.4388 27.6783   3
  16  -4  -3 43.0712 18.9400   2
  16   4  -3 62.0452 44.2306   2
 -16   4   3 53.4312 24.7900   2
  16   4  -3 34.6892 25.0073   1
  16   4  -2 5.38366 17.3688   3
  16  -4  -2 37.9321 22.7082   2
  16   4  -2 25.8963 31.2525   2
 -16   4   2 55.4420 35.3231   2
  16   4  -2 14.2396 26.7747   1
  16   4  -1 59.4204 29.3372   3
  16   4  -1 224.496 75.3969   2
 -16   4   1 111.414 40.8488   2
  16   4  -1 177.602 48.0074   1
  16   4   0 17.7155 19.4269   3
  16   4   0 34.4626 21.7093   1
  16   4   0 98.6472 53.1689   2
 -16   4   0 1.05209 23.7292   2
  16   4   1 38.7988 24.3786   3
  16   4   1 59.0445 38.5816   2
  16   4   1 30.5082 26.2263   1
 -16   4  -1 21.9767 26.5103   2
 -16   4  -2-35.9794 33.3918   2
  16   4   2-4.70991 22.1670   1
  16   4   2-10.4676 14.1282   3
  16   4   2 42.7865 41.3952   2
  16   4   3 427.642 94.6509   2
  16   4   3 421.018 86.3959   1
 -16   4  -3 457.841 83.6309   2
  16   4   3 420.418 57.2972   3
  16   4   4 792.512 1282.96   2
  16   4   4 937.863 1310.28   1
  16   4   5 173.361 67.8466   2
 -16   4  -5 132.739 46.7430   2
  16   4   5 231.859 43.8304   3
  16   4   6 55.1871 52.9328   2
 -16   4  -6 43.7474 28.6855   2
  16   4   6 35.1745 28.6717   3
  16   4   7 855.903 137.871   2
 -16   4  -7 689.148 116.091   2
  16  -4   7 757.213 137.602   3
  16   4   7 878.353 85.9437   3
  16   4   8 309.621 81.0108   2
  16  -4   8 128.844 65.6329   3
  16   4   8 155.000 40.3391   3
  16  -4   9 211.988 77.8192   3
  16   4   9 135.290 40.2888   3
  16  -4  10 459.555 114.077   3
  16  -4  11-20.3568 35.5747   3
  16  -4  12 310.232 95.3206   3
  16  -4  13-31.5507 31.7951   3
  16  -4  14 122.920 68.3852   3
  16  -4  15 67.6949 41.4899   3
  16  -4  16-6.52526 35.0100   3
  16   5 -17 13.2660 33.7117   2
  16   5 -16-52.5040 55.8346   2
  16   5 -15 91.3008 45.8629   2
  16   5 -14 14.3265 49.6601   2
  16   5 -13 30.3357 45.3383   2
  16   5 -12 25.2633 41.7560   2
  16   5 -11 51.6094 52.2282   2
  16   5 -10 257.589 86.8912   2
  16   5  -9-36.6797 39.8381   2
  16  -5  -9-5.55579 12.8073   2
  16   5  -9-3.22035 30.0109   3
  16   5  -8 51.3122 38.0768   2
  16  -5  -8 10.8480 10.6912   2
  16   5  -8 15.9281 15.1914   3
  16  -5  -7 21.0411 16.5339   2
  16   5  -7 70.5088 57.5227   2
  16   5  -7 13.0889 17.4000   3
  16  -5  -6 1115.67 85.6803   2
  16   5  -6 1074.47 114.209   3
  16   5  -6 1363.24 185.446   2
  16   5  -5 59.9673 58.4100   2
  16  -5  -5 19.5221 13.8259   2
  16   5  -5-3.74547 21.6040   3
 -16   5   4 1495.29 114.305   2
  16   5  -4 1333.41 113.298   3
  16   5  -4 1374.08 185.262   2
 -16   5   3 44.5390 27.0669   2
  16   5  -3 88.2167 60.6225   2
  16   5  -3 47.2821 29.6770   1
  16   5  -3-17.5412 11.8411   3
  16   5  -2 10.3748 20.2621   1
 -16   5   2-34.4302 22.7308   2
  16   5  -2 21.0882 34.2293   2
  16   5  -2 12.2812 13.1117   3
  16   5  -1-62.9118 47.1176   2
 -16   5   1-16.1693 22.5785   2
  16   5  -1 6.66645 29.1070   1
  16   5  -1 4.05048 8.68200   3
  16   5   0 93.0689 41.8688   1
  16   5   0 99.6004 22.5960   3
  16   5   0 113.846 66.3673   2
 -16   5   0 127.808 39.4903   2
  16   5   0 93.8572 21.5479   3
  16   5   1 26.9564 35.7361   2
 -16   5  -1 39.7606 25.3428   2
  16   5   1 94.8024 51.4705   1
  16   5   2 27.4156 26.9615   1
  16   5   2 54.8498 36.8455   2
 -16   5  -2 2.82155 14.9184   2
 -16   5  -3 133.966 45.7178   2
  16   5   3 107.845 51.4862   1
  16   5   3 96.2066 49.7148   2
  16   5   4 70.3103 43.3673   2
 -16   5  -4 146.230 49.8928   2
  16   5   4 102.168 50.4169   1
  16   5   5 62.5549 38.9792   2
 -16   5  -5 1.57252 25.9170   2
  16   5   6 936.106 148.553   2
 -16   5  -6 816.326 114.588   2
  16   5   7-2.45041 24.2503   2
  16  -5   7 41.4679 47.8063   3
  16   5   8-37.1286 45.9119   2
  16  -5   8 41.6790 42.2793   3
  16  -5   9 280.365 95.5575   3
  16  -5  10 74.8042 52.4846   3
  16  -5  11 85.8017 58.2473   3
  16  -5  12-61.5760 64.5696   3
  16  -5  13 505.495 132.374   3
  16  -5  14-51.5131 55.2305   3
  16  -5  15 66.1244 52.7285   3
  16   6 -15 109.698 68.8656   2
  16   6 -14 273.184 97.5812   2
  16   6 -13 248.425 96.9697   2
  16   6 -12 93.1705 74.0102   2
  16   6 -11 161.881 75.9839   2
  16   6 -10 37.9524 32.5593   2
  16   6  -9 280.838 90.5012   2
  16   6  -8 348.349 98.8012   2
  16   6  -7 354.657 110.278   2
  16   6  -6 15.1095 26.8706   2
  16   6  -5 82.7840 41.9613   2
  16   6  -4 405.693 106.170   2
  16   6  -4 509.542 93.0919   1
  16   6  -3 1131.56 143.504   1
  16   6  -3 1137.95 170.828   2
  16   6  -2 501.162 92.0928   1
  16   6  -2 493.798 109.020   2
  16   6  -1 783.221 139.356   2
  16   6  -1 1126.35 143.887   1
  16   6   0 374.981 85.8516   1
  16   6   0 269.241 80.9109   2
  16   6   1 1715.77 204.312   2
  16   6   1 1487.13 163.247   1
  16   6   2 70.5723 43.3214   1
  16   6   2 19.0372 33.3202   2
  16   6   3 480.290 94.8784   1
  16   6   3 487.296 106.602   2
  16   6   4 109.980 52.3908   2
  16   6   4 144.801 54.5838   1
  16   6   5 99.1664 52.0061   2
  16   6   6 286.141 87.8077   2
  16   6   7 125.049 62.8213   2
  16  -6   7-125.048 65.7200   3
  16   6   8 294.361 88.6808   2
  16  -6   8 366.555 106.506   3
  16  -6   9 482.137 124.350   3
  16  -6  10 490.711 122.731   3
  16  -6  11-78.8755 67.3872   3
  16  -6  12 172.819 80.2380   3
  16  -6  13 61.1137 44.8800   3
  16   7 -13-156.298 81.8342   2
  16   7 -12-52.6371 39.4420   2
  16   7 -11-12.9199 50.1873   2
  16   7 -10-66.4189 65.5132   2
  16   7  -9 20.9320 54.9368   2
  16   7  -8 103.517 53.9002   2
  16   7  -7 79.5693 62.9623   2
  16   7  -6 83.6728 45.2061   2
  16   7  -5 508.459 118.853   2
  16   7  -4 63.6454 68.5109   2
  16   7  -4-38.8422 45.2544   1
  16   7  -3 40.5237 36.2220   1
  16   7  -3 25.2411 36.0535   2
  16   7  -2 10.9359 31.5240   2
  16   7  -2 1.45012 26.1588   1
  16   7  -1 32.8650 40.2567   1
  16   7  -1 62.3092 56.2932   2
  16   7   0-2.70745 27.4245   1
  16   7   0-18.3459 30.4168   2
  16   7   1 106.375 48.1340   1
  16   7   1 31.2614 35.7486   2
  16   7   2 22.0870 46.1647   1
  16   7   2 87.7397 53.6708   2
  16   7   3 28.2943 32.6042   2
  16   7   3 84.5964 50.3857   1
  16   7   4 424.308 107.224   2
  16   7   4 415.490 94.4343   1
  16   7   5 46.6137 37.5382   2
  16   7   6-44.8036 30.3540   2
  16   7   7-9.01214 26.0132   2
  16  -7   7-35.1463 45.3329   3
  16   7   8 773.188 140.397   2
  16  -7   8 548.731 139.897   3
  16  -7   9 201.508 80.4208   3
  16  -7  10-53.8206 69.9719   3
  16  -7  11-11.1941 42.2388   3
  16   8 -11 312.466 111.149   2
  16   8 -10-20.7624 49.8922   2
  16   8  -9 114.186 70.3643   2
  16   8  -8 29.3329 31.0175   2
  16   8  -7 108.794 58.2288   2
  16   8  -6 126.116 51.4605   2
  16   8  -5-50.0608 46.7508   2
  16   8  -5 78.8308 43.6165   1
  16   8  -4 288.462 100.958   2
  16   8  -4 158.620 68.9665   1
  16   8  -3-10.7024 27.4382   1
  16   8  -3-59.9962 60.4486   2
  16   8  -2-13.4848 33.0396   1
  16   8  -2 29.6522 44.8996   2
  16   8  -1-28.8326 42.4201   1
  16   8  -1 29.9493 28.7954   2
  16   8   0 37.1540 39.9027   2
  16   8   0 78.5384 43.0762   1
  16   8   1 183.795 75.3823   1
  16   8   1 54.3766 45.8522   2
  16   8   2 226.830 68.3072   1
  16   8   2 287.509 91.2882   2
  16   8   3 141.584 67.1572   2
  16   8   3 66.2889 41.7259   1
  16   8   4 66.3729 58.8394   2
  16   8   4 79.7455 50.4229   1
  16   8   5 29.0355 45.1352   2
  16   8   6-25.0056 41.3146   2
  16  -8   6 51.9184 62.5905   3
  16   8   7-30.0550 29.4376   2
  16  -8   7 14.4900 45.0978   3
  16   8   8-23.6443 44.0776   2
  16  -8   8 95.8073 68.3922   3
  16   9  -7-156.363 78.8672   2
  16   9  -6 475.023 129.242   2
  16   9  -5-12.9712 34.5503   2
  16   9  -5-18.0453 34.6454   1
  16   9  -4 1.76848 27.6850   1
  16   9  -4 65.2200 49.0759   2
  16   9  -3-8.73511 31.1153   2
  16   9  -3 86.5580 52.1362   1
  16   9  -2 121.021 56.7993   1
  16   9  -2 123.301 74.9488   2
  16   9  -1-4.25138 29.7047   1
  16   9  -1 25.5837 48.4439   2
  16   9   0 269.544 82.8386   1
  16   9   0 228.272 81.7398   2
  16   9   1 5.71790 34.4260   1
  16   9   1 209.825 84.2804   2
  16   9   2 103.122 60.2362   1
  16   9   2-77.2111 51.5157   2
  16   9   3 109.948 64.1638   2
  16   9   4-49.8207 60.7277   2
  16   9   5 74.0901 47.6810   2
  16   9   6-143.503 68.1231   2
  17   0 -22 205.926 100.926   2
  17   0 -21-0.31442 28.5066   2
  17   0 -20-21.1280 58.3742   2
  17   0 -19-37.3193 42.2460   2
  17   0 -18-46.4840 43.0004   2
  17   0 -17-95.6414 56.3554   2
  17   0 -16 26.7489 32.8308   2
  17   0 -15-20.5348 24.8897   2
  17   0 -14-35.7196 26.9091   2
  17   0 -13-23.6163 38.9160   2
  17   0 -12 72.9004 59.3074   2
  17   0 -11 658.941 125.585   2
  17   0 -10-21.8404 31.3852   2
  17   0  -9 189.029 64.5704   2
  17   0  -8-4.33288 25.4002   2
  17   0  -7 1910.81 194.568   2
  17   0  -6-34.4989 37.9420   2
  17   0  -5 2161.70 202.729   2
  17   0  -4 100.462 49.4087   2
  17   0  -3 151.663 37.5534   1
  17   0  -3 164.821 58.8866   2
  17   0  -2 3.48385 18.6052   1
  17   0  -2 35.9260 36.5341   2
  17   0  -1 242.582 47.8622   1
  17   0  -1 249.435 66.0525   2
  17   0   0 6.13836 19.7482   1
  17   0   0 15.4096 33.1938   2
  17   0   1 406.637 84.0445   2
  17   0   2-1.47243 28.8592   2
  17   0   3 1457.84 158.285   2
  17   0   4-10.7195 23.4410   2
  17   0   5 14.7606 26.8316   2
  17   0   6-66.7082 34.2826   3
  17   0   7 464.108 92.6824   3
  17   0   8 54.9303 35.8163   3
  17   0   9 254.729 77.0106   3
  17   0  10-39.8664 46.9047   3
  17   0  11 85.1377 67.2135   3
  17   0  12 48.3377 47.5236   3
  17   0  13 59.2429 46.7503   3
  17   0  14-28.8120 37.7614   3
  17   0  15 23.8233 45.0557   3
  17   0  16-10.9767 50.3677   3
  17   0  17 415.351 112.796   3
  17   0  18 2.06692 26.9524   3
  17   0  19-54.2504 51.3767   3
  17   0  20-123.171 68.8524   3
  17  -1 -22 26.0946 36.0240   2
  17  -1 -21 25.1411 34.1467   2
  17   1 -21 52.1263 46.2129   2
  17  -1 -20-2.90635 30.4615   2
  17   1 -20 17.9307 35.1231   2
  17  -1 -19 178.669 75.7661   2
  17   1 -19 106.433 64.7747   2
  17   1 -18-7.00797 26.7459   2
  17  -1 -18 11.5640 37.5632   2
  17   1 -17 122.937 69.1983   2
  17  -1 -17 172.675 70.9745   2
  17   1 -16 182.931 78.5073   2
  17  -1 -16 40.5960 28.5285   2
  17   1 -15 69.2278 49.8396   2
  17  -1 -15 59.1277 44.4488   2
  17   1 -14 77.5658 49.2757   2
  17  -1 -14 198.780 68.8857   2
  17   1 -13 28.8487 44.6576   2
  17  -1 -13 32.9129 33.7775   2
  17  -1 -12 69.4127 45.0984   2
  17   1 -12 64.3040 46.5506   2
  17   1 -11 105.464 64.4036   2
  17  -1 -11 18.4552 36.8583   2
  17   1 -10 194.467 76.5200   2
  17  -1 -10 236.235 75.4414   2
  17   1  -9 350.871 88.5800   2
  17  -1  -9 428.409 92.1855   2
  17   1  -8-17.2619 34.2587   2
  17  -1  -8 61.6587 42.2064   2
  17   1  -7 269.862 75.7459   2
  17  -1  -7 342.725 81.5866   2
 -17   1   7 273.809 77.8152   2
  17   1  -6 327.754 84.4454   2
  17  -1  -6 327.041 77.9706   2
 -17   1   6 285.957 76.2310   2
  17   1  -5 387.243 92.9472   2
  17  -1  -5 307.217 76.7174   2
 -17   1   5 280.804 82.8284   2
  17  -1  -4 58.6004 39.1264   2
 -17   1   4-21.5236 30.1846   2
  17  -1  -4 85.5131 24.1516   1
  17  -1  -3 350.086 51.7636   1
  17   1  -3 260.942 74.4829   2
 -17   1   3 320.687 76.9133   2
  17  -1  -3 221.235 61.5136   2
  17   1  -3 303.810 59.3601   1
  17   1  -2 139.261 62.4029   2
  17  -1  -2 96.0794 27.8542   1
  17   1  -2 113.344 35.9419   1
 -17   1   2 70.6110 39.6452   2
  17  -1  -2 107.899 45.3304   2
  17   1  -1 460.457 69.9535   1
  17  -1  -1 479.747 62.6277   1
  17   1  -1 385.899 90.5934   2
 -17   1   1 318.099 81.4213   2
  17  -1  -1 336.156 71.7973   2
  17  -1   0 840.236 113.330   2
 -17   1   0 796.763 125.522   2
  17   1   0 680.853 89.0586   1
  17   1   0 790.089 121.670   2
  17   1   1 32.3460 26.2627   1
  17  -1   1 74.2537 40.3567   2
 -17   1  -1 72.1236 38.2365   2
  17   1   1-26.8190 34.8614   2
  17   1   2 561.612 102.503   2
  17  -1   2 588.470 97.6730   2
  17   1   3 131.840 56.8640   2
  17  -1   3 140.031 53.4194   2
  17   1   4 516.561 94.7590   2
  17  -1   4 544.960 92.9370   2
  17   1   5 623.710 109.629   2
  17   1   5 632.667 102.461   3
  17   1   6 60.0339 41.2003   2
  17   1   6-41.0777 42.5628   3
  17  -1   7 8.35627 42.5190   3
  17   1   7 53.3486 37.0370   3
  17  -1   8 19.4590 32.5860   3
  17   1   8 82.6163 42.1579   3
  17  -1   9-3.21788 29.6597   3
  17   1   9 56.0963 40.6597   3
  17  -1  10 44.1011 27.9895   3
  17   1  10-18.3832 37.8330   3
  17  -1  11-27.2084 49.0954   3
  17   1  11-22.1721 27.1304   3
  17  -1  12 26.2960 33.4982   3
  17   1  12 15.9679 24.8342   3
  17  -1  13 174.556 73.4035   3
  17   1  13 148.177 62.3289   3
  17  -1  14 79.1429 40.9865   3
  17   1  14 106.014 55.8950   3
  17  -1  15-36.4405 51.8692   3
  17   1  15-7.36193 30.4886   3
  17  -1  16 114.279 70.6010   3
  17   1  16 41.7567 50.0039   3
  17  -1  17 22.0698 46.4927   3
  17   1  17 2.62772 31.6054   3
  17  -1  18-118.239 67.7103   3
  17   1  18 207.771 83.9865   3
  17  -1  19 36.7574 46.6441   3
  17   1  19-13.1474 42.1576   3
  17   1  20 46.4880 65.6951   3
  17  -2 -22-126.635 66.0815   2
  17  -2 -21 31.2970 22.3853   2
  17  -2 -20 63.0512 47.9890   2
  17   2 -20 23.5519 47.9557   2
  17   2 -19 50.4598 47.5438   2
  17  -2 -19 53.4094 42.6506   2
  17   2 -18 5.50654 36.8523   2
  17  -2 -18 34.8547 49.4861   2
  17   2 -17-23.9103 43.3523   2
  17  -2 -17-29.6319 43.4094   2
  17   2 -16-94.7522 59.4300   2
  17  -2 -16-22.9348 26.1367   2
  17   2 -15-10.4490 53.9062   2
  17  -2 -15-0.90324 38.9831   2
  17   2 -14-31.6540 55.9713   2
  17  -2 -14-0.64886 32.0478   2
  17   2 -13 245.800 82.6559   2
  17  -2 -13 273.322 75.7266   2
  17  -2 -12-33.1757 30.9226   2
  17   2 -12-51.9528 40.8348   2
  17   2 -11 968.233 152.135   2
  17  -2 -11 986.349 138.160   2
  17   2 -10 518.194 114.472   2
  17  -2 -10 400.974 84.9291   2
  17   2  -9-10.5740 33.1954   2
  17  -2  -9-45.7951 34.4833   2
 -17   2   8 1249.63 154.193   2
  17   2  -8 1240.01 171.426   2
  17  -2  -8 1398.56 153.498   2
  17   2  -7 289.756 94.2039   3
  17   2  -7 267.137 81.8827   2
 -17   2   7 281.203 73.3036   2
  17  -2  -7 246.957 64.0118   2
  17   2  -6 551.727 118.809   3
  17   2  -6 358.207 92.3983   2
 -17   2   6 313.287 72.2497   2
  17  -2  -6 450.360 85.7627   2
  17   2  -5 54.0032 43.5784   3
  17   2  -5 22.5146 35.8111   2
 -17   2   5-14.6110 33.9744   2
  17  -2  -5 79.9823 33.2363   2
  17  -2  -5 82.2880 22.1656   1
  17  -2  -4 18.7562 12.1192   1
  17   2  -4 16.4285 28.1522   2
 -17   2   4 37.4085 46.9271   2
  17  -2  -4 36.0044 29.2760   2
  17  -2  -3 177.943 32.1012   1
  17   2  -3 150.306 47.5023   1
  17   2  -3 185.483 67.5253   2
 -17   2   3 191.065 65.7745   2
  17  -2  -3 105.986 41.3542   2
  17  -2  -2 765.883 104.014   2
  17   2  -2 691.975 117.780   2
 -17   2   2 653.967 114.280   2
  17   2  -2 759.984 92.4038   1
  17  -2  -1-5.49866 17.7069   2
  17   2  -1 36.0410 35.5676   1
  17   2  -1-25.9284 37.9614   2
 -17   2   1 1.37095 28.2239   2
  17  -2   0 506.350 86.0710   2
  17   2   0 512.192 102.569   2
  17   2   0 465.320 76.2713   1
 -17   2   0 538.050 98.0871   2
  17  -2   1-18.1029 31.6537   2
  17   2   1-31.5709 27.5373   1
  17   2   1 31.8137 39.4258   2
 -17   2  -1-15.3807 31.9833   2
  17   2   2 38.1892 33.1291   2
 -17   2  -2-7.79702 31.7365   2
  17   2   2-55.0951 42.4064   1
  17  -2   2 6.62270 26.2830   2
 -17   2  -3-18.6022 17.6957   2
  17   2   3 25.4488 33.3270   2
  17   2   4-39.8312 36.6674   2
  17   2   4 25.0801 27.0035   3
  17   2   5 557.307 105.900   2
  17   2   5 468.179 81.6111   3
  17   2   6 486.774 98.2206   2
  17   2   6 470.466 82.5157   3
  17   2   7 171.267 61.2271   2
  17  -2   7 177.049 66.4069   3
  17   2   7 148.120 49.4239   3
  17  -2   8 165.072 67.4430   3
  17   2   8 193.812 59.8025   3
  17  -2   9 65.4011 43.9724   3
  17   2   9 200.878 52.7622   3
  17  -2  10-96.4921 63.1595   3
  17   2  10-33.0130 24.4011   3
  17  -2  11 140.328 66.0519   3
  17   2  11 162.240 58.9851   3
  17  -2  12 25.5243 31.3324   3
  17   2  12-12.6633 30.4887   3
  17  -2  13 61.0902 52.8342   3
  17   2  13 53.2760 32.1738   3
  17  -2  14 23.1960 37.3646   3
  17   2  14-36.3960 37.4202   3
  17  -2  15-83.2063 70.9102   3
  17   2  15 14.0204 32.3555   3
  17  -2  16 33.6254 46.0219   3
  17   2  16 2.97311 23.4648   3
  17  -2  17-126.571 72.0278   3
  17   2  17 22.0463 23.3159   3
  17  -2  18 43.3375 43.3657   3
  17   3 -19 91.8112 69.2644   2
  17   3 -18 0.32253 51.6716   2
  17  -3 -18-23.4350 35.3936   2
  17   3 -17 16.4839 53.0979   2
  17  -3 -17 19.4693 32.2101   2
  17   3 -16 116.524 69.5418   2
  17  -3 -16 9.45343 40.3865   2
  17   3 -15 5.50675 37.6164   2
  17  -3 -15 68.0891 46.7881   2
  17   3 -14 641.837 137.463   2
  17  -3 -14 675.193 116.498   2
  17  -3 -13 20.6265 22.9713   2
  17   3 -13 75.0239 51.6594   2
  17  -3 -12 356.885 83.0934   2
  17   3 -12 579.830 130.595   2
  17   3 -11 35.0509 39.6450   2
  17  -3 -11-100.718 44.0903   2
  17   3 -10 267.216 97.7126   2
  17  -3 -10 222.150 56.5407   2
  17   3  -9-13.1509 37.0101   2
  17  -3  -9 32.6430 24.3892   2
  17   3  -8 1365.27 180.561   2
  17   3  -8 1475.29 180.244   3
  17  -3  -8 1354.52 138.768   2
  17   3  -7 232.250 75.6439   3
  17   3  -7 204.119 74.1171   2
 -17   3   7 96.9460 41.5081   2
  17  -3  -7 117.699 42.4030   2
  17   3  -6 30.8791 25.4544   3
  17   3  -6 88.0081 47.8778   2
 -17   3   6 40.1711 31.2509   2
  17  -3  -6 96.9966 40.0877   2
  17  -3  -5 237.601 30.1177   1
  17   3  -5 202.253 65.5835   3
  17   3  -5 138.416 56.4505   2
 -17   3   5 163.368 53.4148   2
  17  -3  -5 181.759 49.5299   2
  17   3  -4 279.536 77.5200   3
  17   3  -4 77.9755 43.7207   2
 -17   3   4 181.051 58.2621   2
  17  -3  -4 119.296 35.1161   2
  17  -3  -3 74.4700 30.0218   2
  17   3  -3 95.1051 46.4886   3
  17   3  -3 78.9154 49.0540   2
  17   3  -3 97.4650 41.4736   1
 -17   3   3 33.7599 39.5290   2
  17   3  -2 60.1037 30.6854   1
  17  -3  -2 71.4159 31.3191   2
  17   3  -2-5.07348 27.7753   2
 -17   3   2 75.3621 46.4104   2
  17  -3  -1 114.855 38.7727   2
  17   3  -1 148.695 45.9631   1
  17   3  -1 170.880 66.7408   2
 -17   3   1 150.971 53.3060   2
  17  -3   0 1.55434 15.5827   2
  17   3   0-33.7289 43.4064   2
 -17   3   0 11.2821 24.4735   2
  17   3   0 17.6867 38.7178   1
 -17   3  -1 682.207 111.981   2
  17   3   1 696.131 100.967   1
  17   3   1 724.711 124.942   2
 -17   3  -2 269.460 72.0262   2
  17   3   2 193.904 58.8679   1
  17   3   2 305.564 86.2552   2
  17   3   3 245.117 71.3725   2
 -17   3  -3 312.249 69.6976   2
  17   3   3 515.162 94.5522   1
  17   3   4-30.6460 38.8074   2
 -17   3  -4 28.9966 31.8859   2
  17   3   5 87.4507 49.4826   2
  17   3   6 9.76726 44.6062   2
  17   3   7 39.7406 39.4300   2
  17  -3   7 9.18878 41.9127   3
  17  -3   8-55.4193 58.1418   3
  17   3   8 49.0253 36.0710   3
  17  -3   9 114.333 66.1530   3
  17   3   9-32.5544 33.2465   3
  17  -3  10 690.841 134.175   3
  17   3  10 733.081 102.819   3
  17  -3  11-11.0090 46.1746   3
  17   3  11-36.1974 32.0835   3
  17  -3  12 43.9318 49.0377   3
  17   3  12-15.2876 23.4980   3
  17  -3  13 2.88500 37.6604   3
  17   3  13 40.3312 27.8146   3
  17  -3  14-45.4925 50.4326   3
  17   3  14 12.0024 24.1351   3
  17  -3  15-37.1233 64.6785   3
  17  -3  16 138.367 70.6791   3
  17  -3  17 85.9124 69.0558   3
  17   4 -18 64.4416 52.2937   2
  17   4 -17-51.3755 61.7522   2
  17   4 -16 236.197 78.7627   2
  17   4 -15 120.952 60.5387   2
  17  -4 -14 51.6873 32.8878   2
  17   4 -14-68.2200 59.9165   2
  17  -4 -13-24.7957 37.8850   2
  17   4 -13-44.6728 83.3952   2
  17   4 -12 569.115 126.245   2
  17  -4 -12 431.672 81.0896   2
  17   4 -11 107.003 64.1170   2
  17  -4 -11 104.724 42.0447   2
  17   4 -10 198.279 76.6344   2
  17  -4 -10 232.133 56.4006   2
  17   4  -9-79.4757 61.6389   2
  17  -4  -9-25.9725 16.7046   2
  17   4  -9-11.8191 26.4473   3
  17   4  -8 43.5074 47.6586   2
  17  -4  -8 67.3766 32.2802   2
  17   4  -8 35.0903 25.4337   3
  17   4  -7-40.0260 29.6445   3
  17   4  -7 54.7409 48.2383   2
  17  -4  -7 20.2334 8.76947   1
  17  -4  -7 66.4596 33.4738   2
  17   4  -6 155.441 47.1494   3
  17   4  -6 261.890 95.5266   2
 -17   4   6 108.606 43.1145   2
  17  -4  -6 128.888 37.2282   2
  17  -4  -5-22.6311 14.9682   2
  17   4  -5 29.7064 28.7468   3
  17   4  -5-25.3519 38.5149   2
 -17   4   5 13.1763 19.8828   2
  17   4  -4 12.6378 16.6987   3
  17  -4  -4-11.9606 17.8489   2
  17   4  -4 18.4696 32.7569   2
 -17   4   4-23.9814 35.7324   2
  17   4  -3 12.6913 24.1636   3
  17  -4  -3 4.61277 11.5522   2
  17   4  -3 41.7510 37.0510   1
  17   4  -3-3.90041 41.4788   2
 -17   4   3 1.25253 24.1171   2
  17   4  -2 56.5448 21.3533   3
  17   4  -2 63.7706 38.2060   1
  17  -4  -2 29.1140 15.9643   2
  17   4  -2 75.3128 51.4526   2
 -17   4   2 62.9864 32.7113   2
  17   4  -1 125.179 41.4569   3
  17   4  -1 82.6948 47.8531   1
  17   4  -1 98.7535 50.5833   2
 -17   4   1 65.5493 29.8876   2
  17   4   0 87.8140 45.9062   1
  17   4   0 152.261 40.4969   3
  17   4   0 122.368 50.9664   2
 -17   4   0 183.614 54.5654   2
  17   4   1 258.180 55.5276   3
  17   4   1 194.242 59.8610   1
  17   4   1 287.417 87.6167   2
 -17   4  -1 236.342 60.2874   2
  17   4   2-18.1858 34.4316   1
  17   4   2-10.8488 16.0995   3
  17   4   2-49.3726 52.7034   2
 -17   4  -2-42.1512 31.8012   2
  17   4   3 9.28041 32.0927   2
  17   4   3-18.5493 28.3483   1
 -17   4  -3-3.63545 25.4521   2
  17   4   3-34.1207 21.7507   3
 -17   4  -4 21.7253 17.7601   2
  17   4   4 26.9522 20.8966   3
  17   4   5 27.9563 33.5690   2
 -17   4  -5-6.75630 15.6194   2
  17   4   5 27.6458 17.3101   3
  17   4   6 124.290 61.0800   2
  17   4   6 60.1213 25.2832   3
  17   4   7 76.8207 47.4817   2
  17  -4   7 193.336 79.0853   3
  17   4   7 59.5581 23.0737   3
  17  -4   8 1083.66 183.401   3
  17   4   8 1256.29 112.228   3
  17   4   8 1349.20 175.533   2
  17  -4   9 472.907 121.258   3
  17  -4  10 39.9406 44.7701   3
  17  -4  11-24.9033 40.3125   3
  17  -4  12-3.54426 29.2771   3
  17  -4  13-4.89178 36.4411   3
  17  -4  14 466.152 136.487   3
  17  -4  15 101.842 68.7887   3
  17  -4  16-44.6183 57.6328   3
  17   5 -16 13.8880 44.3504   2
  17   5 -15 92.5334 55.1905   2
  17   5 -14-96.8732 68.7477   2
  17   5 -13-21.2480 58.2289   2
  17   5 -12-65.6175 53.7477   2
  17   5 -11 90.3044 60.8637   2
  17   5 -10-10.7479 29.8419   2
  17   5  -9 236.942 84.9550   2
  17   5  -8-22.5263 46.0261   2
  17  -5  -7 1.87402 16.3142   2
  17   5  -7 93.7367 67.3907   2
  17  -5  -6-20.8785 22.7965   2
  17   5  -6-78.6395 50.3376   2
  17   5  -5 373.530 96.7596   2
  17  -5  -5 348.459 50.1931   2
  17   5  -4 465.130 84.1410   1
  17   5  -4 445.854 109.208   2
  17   5  -3 68.0549 37.2628   2
  17   5  -3 4.98869 24.5350   1
  17   5  -2 1411.69 186.328   2
  17   5  -2 1384.02 147.056   1
  17   5  -1 61.1235 38.9449   1
 -17   5   1-4.36755 20.7208   2
  17   5  -1 108.759 61.5234   2
  17   5   0 179.922 60.0926   1
  17   5   0 191.575 32.5604   3
 -17   5   0 182.576 53.6128   2
  17   5   0 184.770 64.8971   2
  17   5   1-19.3350 26.0862   1
 -17   5  -1 24.6976 25.1282   2
  17   5   1-57.2108 51.7937   2
  17   5   2-16.1486 38.5580   1
 -17   5  -2 11.9875 23.2501   2
  17   5   2 17.1788 40.5696   2
  17   5   3 55.8634 38.1586   2
 -17   5  -3-1.04404 21.9343   2
  17   5   3 19.7992 33.3353   1
  17   5   4 16.0756 40.4937   2
  17   5   4 4.86877 33.5578   1
  17   5   5-6.19783 30.4021   2
  17   5   6 133.052 60.2821   2
  17   5   7 748.415 136.851   2
  17  -5   7 754.960 145.559   3
  17   5   8 5.18988 28.3897   2
  17  -5   8-23.0646 41.7656   3
  17  -5   9 300.772 97.6180   3
  17  -5  10-61.1931 50.3286   3
  17  -5  11 401.027 115.296   3
  17  -5  12 35.2731 52.1126   3
  17  -5  13 700.232 157.853   3
  17  -5  14 37.5546 46.6396   3
  17   6 -14-109.698 67.5935   2
  17   6 -13-8.88486 54.9597   2
  17   6 -12 83.9441 65.7194   2
  17   6 -11 19.0294 44.4988   2
  17   6 -10-63.3722 47.0747   2
  17   6  -9 43.1930 41.8726   2
  17   6  -8 157.818 66.3774   2
  17   6  -7 286.201 84.9678   2
  17   6  -6-29.5056 44.8594   2
  17   6  -5 33.3370 29.5926   2
  17   6  -4 7.43474 47.2086   2
  17   6  -4 1.74435 32.3130   1
  17   6  -3 61.8990 41.1223   1
  17   6  -3 129.275 57.9475   2
  17   6  -2 155.930 56.8973   2
  17   6  -2 193.520 58.9321   1
  17   6  -1 0.70430 26.5981   1
  17   6  -1 35.2282 45.4629   2
  17   6   0 288.294 90.1580   2
  17   6   0 247.082 73.1878   1
  17   6   1 1873.63 217.761   2
  17   6   1 1753.96 185.079   1
  17   6   2 430.661 95.0640   1
  17   6   2 366.577 99.1642   2
  17   6   3 167.474 66.6991   2
  17   6   3 124.645 55.0102   1
  17   6   4-20.7211 29.6406   2
  17   6   4 33.2618 31.5548   1
  17   6   5-36.7565 39.9770   2
  17   6   6 193.870 66.1515   2
  17   6   7 25.8629 41.5258   2
  17  -6   7 4.20289 40.1045   3
  17   6   8 56.5203 46.2756   2
  17  -6   8 64.6772 66.6953   3
  17  -6   9 119.066 76.1290   3
  17  -6  10-86.1585 60.4100   3
  17  -6  11 37.3850 36.2692   3
  17  -6  12-208.304 91.1093   3
  17   7 -12 106.652 68.7184   2
  17   7 -11 69.5452 65.4603   2
  17   7 -10 133.109 78.7052   2
  17   7  -9-81.5234 58.1523   2
  17   7  -8-187.443 80.7602   2
  17   7  -7 968.343 178.961   2
  17   7  -6 94.3936 40.5879   2
  17   7  -5 261.642 78.3546   1
  17   7  -5 28.3147 38.7281   2
  17   7  -4 106.012 49.9316   2
  17   7  -4 80.4268 38.4670   1
  17   7  -3 119.199 44.9327   1
  17   7  -3 128.850 68.8024   2
  17   7  -2-11.5368 34.3385   1
  17   7  -2 24.4983 28.1867   2
  17   7  -1 99.5120 43.1984   1
  17   7  -1 135.898 61.7953   2
  17   7   0-10.7404 31.8937   2
  17   7   0-56.2695 34.4442   1
  17   7   1-37.4754 53.6497   1
  17   7   1-108.360 66.4445   2
  17   7   2 126.918 58.6457   1
  17   7   2 22.9710 33.5690   2
  17   7   3-101.625 65.9762   2
  17   7   3 57.8423 53.8405   1
  17   7   4 19.4298 34.1922   2
  17   7   4 31.1470 43.5956   1
  17   7   5 271.637 79.6007   2
  17   7   6 8.24327 34.4148   2
  17   7   7-31.5957 58.5368   2
  17  -7   7 50.0491 41.5446   3
  17   7   8-44.7473 37.5154   2
  17  -7   8 22.8876 41.5892   3
  17  -7   9-97.6369 64.3849   3
  17   8  -9 389.769 122.409   2
  17   8  -8 80.9761 65.4631   2
  17   8  -7-46.0865 78.1904   2
  17   8  -6-32.8825 30.3424   2
  17   8  -6-26.3092 32.0067   1
  17   8  -5 68.0620 48.2585   1
  17   8  -5 46.5814 43.9936   2
  17   8  -4 261.731 77.3017   1
  17   8  -4 224.015 75.7636   2
  17   8  -3 29.5784 34.3852   2
  17   8  -3 106.007 59.1696   1
  17   8  -2 291.086 86.1769   1
  17   8  -2 342.041 107.366   2
  17   8  -1 63.5730 50.1818   1
  17   8  -1 4.32533 36.6773   2
  17   8   0 35.8247 38.9108   2
  17   8   0 6.34227 27.2374   1
  17   8   1 149.848 61.4029   1
  17   8   1 93.3863 63.4447   2
  17   8   2 120.645 53.2002   1
  17   8   2 171.634 63.9716   2
  17   8   3-30.2126 54.4921   1
  17   8   3 8.83626 40.1182   2
  17   8   4-2.47890 25.8164   2
  17   8   4 3.35439 40.8814   1
  17   8   5 10.7108 38.2713   2
  17   8   6 52.7665 46.8515   2
  17  -8   6-193.260 89.2169   3
  17   8   7-43.8050 51.0175   2
  17   9  -4 12.8458 35.7421   2
  17   9  -3 12.4353 26.5132   2
  17   9  -2 49.6621 32.7029   2
  17   9  -1-89.3905 74.0992   2
  17   9   0 3.65368 30.9147   2
  17   9   1-77.6246 55.0793   2
  17   9   2 125.241 69.7082   2
  18   0 -21 36.0696 37.7446   2
  18   0 -20 34.4308 41.9132   2
  18   0 -19 67.5171 67.2748   2
  18   0 -18 100.382 58.5947   2
  18   0 -17-13.8237 34.5363   2
  18   0 -16 62.0740 48.3540   2
  18   0 -15 0.78760 37.2988   2
  18   0 -14 322.770 94.0816   2
  18   0 -13 22.2948 26.3274   2
  18   0 -12 1851.05 210.320   2
  18   0 -11-31.2093 48.3076   2
  18   0 -10 2301.94 226.901   2
  18   0  -9 51.2982 43.1386   2
  18   0  -8 52.0481 45.2271   2
  18   0  -7 21.1446 27.8237   2
  18   0  -6 947.122 137.997   2
  18   0  -5 34.4076 42.6541   2
  18   0  -4 968.432 140.784   2
  18   0  -4 933.542 97.5013   1
  18   0  -3 17.3247 22.0098   1
  18   0  -3 33.2958 38.5275   2
  18   0  -2 214.930 69.5340   2
  18   0  -2 231.311 50.3780   1
  18   0  -1-7.21536 20.7789   1
  18   0  -1-39.0503 42.3404   2
  18   0   0-28.1073 23.6914   1
  18   0   0 105.253 49.4494   2
  18   0   1 3.48861 23.5919   2
  18   0   2 99.9790 53.9314   2
  18   0   3 8.77509 26.6008   2
  18   0   4 428.475 94.2030   2
  18   0   5-46.1896 40.8407   2
  18   0   6 169.293 64.8239   3
  18   0   7-76.3178 45.2057   3
  18   0   8 702.349 121.446   3
  18   0   9-109.069 53.6439   3
  18   0  10 89.2604 57.1525   3
  18   0  11-76.7118 48.9910   3
  18   0  12 403.277 100.341   3
  18   0  13-21.7631 44.9419   3
  18   0  14-99.6848 62.7229   3
  18   0  15 12.0081 42.8325   3
  18   0  16 130.839 66.8022   3
  18   0  17-31.4143 36.3356   3
  18   0  18 240.067 100.153   3
  18   0  19-9.81620 35.1862   3
  18  -1 -22 34.3456 40.3589   2
  18  -1 -21-19.5790 33.7328   2
  18   1 -20 19.5321 65.1109   2
  18  -1 -20 75.6577 54.7254   2
  18   1 -19-6.29991 35.0373   2
  18  -1 -19 100.433 70.6187   2
  18   1 -18 90.5035 58.5605   2
  18  -1 -18-140.396 68.6573   2
  18   1 -17 137.655 74.9759   2
  18  -1 -17 194.450 76.6275   2
  18   1 -16 53.5100 36.5746   2
  18  -1 -16 106.841 60.6390   2
  18   1 -15 16.7676 35.7509   2
  18  -1 -15-9.55318 39.1830   2
  18   1 -14 66.8556 55.9431   2
  18  -1 -14 68.2753 51.5169   2
  18   1 -13 53.2046 44.3121   2
  18  -1 -13 13.3833 34.0891   2
  18   1 -12 83.1070 56.4115   2
  18  -1 -12 61.3498 43.7352   2
  18   1 -11 334.858 91.2075   2
  18  -1 -11 450.454 98.6853   2
  18   1 -10 45.2732 41.4287   2
  18  -1 -10 41.7195 29.8830   2
  18   1  -9 701.421 125.645   2
  18  -1  -9 501.395 102.882   2
  18   1  -8 270.092 79.5088   2
  18  -1  -8 180.612 64.9823   2
  18   1  -7 547.492 111.464   2
  18  -1  -7 488.556 97.4838   2
  18   1  -6 100.193 52.5789   2
  18  -1  -6 141.684 52.3251   2
  18  -1  -5 471.835 62.9770   1
  18   1  -5 456.046 98.8535   2
  18  -1  -5 338.216 78.0089   2
  18   1  -4 120.074 41.5539   1
  18   1  -4 17.0147 26.1191   2
  18  -1  -4 91.1966 44.4068   2
  18  -1  -4 113.237 30.6967   1
  18   1  -3 106.958 33.4849   1
  18   1  -3 81.0601 47.1113   2
  18  -1  -3 118.500 47.9434   2
  18  -1  -3 105.057 29.4009   1
  18   1  -2 222.968 50.8441   1
  18  -1  -2 363.670 57.4360   1
  18   1  -2 391.677 88.6861   2
  18  -1  -2 221.249 63.2217   2
  18  -1  -1 64.1959 41.1178   2
  18   1  -1 69.5934 47.7111   2
  18   1  -1 102.809 32.1449   1
  18  -1   0 35.4166 35.1422   2
  18   1   0 28.0151 26.7994   1
  18   1   0 43.4329 36.0413   2
  18   1   1 221.560 67.0091   2
  18  -1   1 190.542 58.3617   2
  18   1   1 142.368 45.1532   1
  18   1   2 1181.81 152.613   2
  18  -1   2 1127.45 139.759   2
  18   1   3 47.4909 36.0102   2
  18  -1   3 8.80947 34.7438   2
  18   1   4 35.6646 34.1691   2
  18   1   5 141.422 53.2498   2
  18   1   5 70.7878 42.6685   3
  18   1   6 13.0515 23.3363   2
  18   1   6 32.3094 36.8159   3
  18  -1   7-32.2550 49.2500   3
  18   1   7 21.7842 36.4860   3
  18  -1   8-18.6991 30.9641   3
  18   1   8 22.2761 26.9451   3
  18  -1   9 114.667 53.3930   3
  18   1   9 148.638 53.0203   3
  18  -1  10 21.0130 29.5500   3
  18   1  10 21.5569 24.7170   3
  18  -1  11 144.960 56.7994   3
  18   1  11 150.893 58.8637   3
  18  -1  12 18.4516 46.5126   3
  18   1  12 7.62151 27.0744   3
  18  -1  13-22.2127 38.4885   3
  18   1  13-59.0283 43.0591   3
  18  -1  14 187.238 74.4031   3
  18   1  14 184.900 71.4696   3
  18  -1  15 315.268 98.9520   3
  18   1  15 422.454 105.572   3
  18  -1  16 0.29209 37.1029   3
  18   1  16 71.9907 46.0497   3
  18  -1  17-30.5687 39.6680   3
  18   1  17-54.0206 51.8563   3
  18  -1  18-70.4615 54.7446   3
  18   1  18-22.2783 34.2278   3
  18  -1  19-122.942 70.0187   3
  18  -2 -20 14.7697 41.4287   2
  18   2 -19 86.8019 57.6801   2
  18  -2 -19 43.8279 44.6702   2
  18   2 -18-16.2242 48.4470   2
  18  -2 -18 0.80386 25.9660   2
  18   2 -17 68.5181 52.8538   2
  18  -2 -17 69.4705 55.0620   2
  18   2 -16 41.9817 51.8929   2
  18  -2 -16-32.4644 36.9071   2
  18   2 -15 171.768 72.9213   2
  18  -2 -15 105.649 55.7533   2
  18  -2 -14 2.46164 32.0861   2
  18   2 -14-0.27916 46.7000   2
  18   2 -13 266.174 87.7491   2
  18  -2 -13 178.390 56.3888   2
  18   2 -12 225.390 74.9696   2
  18  -2 -12 133.028 61.1632   2
  18   2 -11 183.095 72.4941   2
  18  -2 -11 248.349 71.3813   2
  18   2 -10 224.848 76.7706   2
  18  -2 -10 281.430 73.0111   2
  18   2  -9 724.885 135.432   2
  18  -2  -9 858.330 125.440   2
  18   2  -8 662.758 127.910   2
 -18   2   8 574.156 112.304   2
  18  -2  -8 703.001 111.004   2
  18   2  -7 344.872 89.5744   2
 -18   2   7 232.323 69.5867   2
  18  -2  -7 271.986 64.3555   2
  18   2  -6 431.706 109.493   3
  18   2  -6 455.533 104.356   2
 -18   2   6 372.072 88.3429   2
  18  -2  -6 345.622 74.6161   2
  18   2  -5 135.158 70.7462   3
  18   2  -5 117.490 65.6180   2
 -18   2   5 43.0389 41.9796   2
  18  -2  -5 79.0320 36.9949   2
  18  -2  -5 44.1637 14.0063   1
  18   2  -4-4.55428 32.7103   2
 -18   2   4-20.9139 44.1127   2
  18   2  -4-14.4527 26.1970   1
  18  -2  -4 57.2892 40.0474   2
  18  -2  -4 15.4970 10.0261   1
  18  -2  -3 172.529 33.4170   1
  18   2  -3 202.301 52.4565   1
  18   2  -3 199.274 66.7651   2
 -18   2   3 132.745 53.1878   2
  18  -2  -3 203.698 58.8508   2
  18  -2  -2-7.65424 19.4991   2
  18   2  -2-4.58949 25.6907   1
  18   2  -2-46.8035 40.6945   2
 -18   2   2-24.0398 36.3087   2
  18   2  -1-7.26457 26.3363   1
  18  -2  -1 79.0748 42.2111   2
  18   2  -1-0.20817 29.0877   2
 -18   2   1 16.2023 27.3211   2
  18  -2   0 323.131 71.9481   2
  18   2   0 331.892 65.2002   1
 -18   2   0 314.660 79.0561   2
  18   2   0 391.316 90.4633   2
  18   2   1 39.6578 21.9534   1
  18  -2   1 4.25775 26.7505   2
 -18   2  -1 83.6849 47.2234   2
  18   2   1 85.2215 51.3844   2
  18   2   2 173.331 61.6064   2
  18  -2   2 192.654 56.5869   2
  18   2   2 219.135 53.8381   1
  18   2   3 80.9015 44.6944   2
  18   2   4-34.0907 45.9938   2
  18   2   4 9.99458 35.9296   3
  18   2   5 148.702 61.1035   2
  18   2   5 196.851 55.9211   3
  18   2   6 198.733 63.6507   2
  18   2   6 147.492 53.0968   3
  18  -2   7 552.398 119.388   3
  18   2   7 416.788 96.2878   2
  18   2   7 417.322 82.9161   3
  18  -2   8 184.361 71.0197   3
  18   2   8 180.203 60.7575   3
  18  -2   9 36.1403 48.6791   3
  18   2   9 53.7935 45.1658   3
  18  -2  10-49.8283 45.9490   3
  18   2  10 35.0653 33.9724   3
  18  -2  11 165.067 77.4048   3
  18   2  11 211.575 59.4511   3
  18  -2  12-161.597 73.1998   3
  18   2  12-97.2685 47.6650   3
  18  -2  13-64.1613 61.0560   3
  18   2  13-12.1056 37.1438   3
  18  -2  14-23.4144 38.7451   3
  18   2  14 13.4023 25.3329   3
  18  -2  15 7.78367 46.3192   3
  18   2  15-25.6662 33.1605   3
  18  -2  16 103.966 71.2994   3
  18  -2  17 56.7288 40.6670   3
  18   3 -18-5.01687 57.4908   2
  18   3 -17 4.51658 32.9170   2
  18   3 -16 52.6644 59.6395   2
  18  -3 -16 88.7383 54.2286   2
  18  -3 -15-18.2215 28.6434   2
  18   3 -15 59.3821 59.4620   2
  18  -3 -14 78.0061 43.5083   2
  18   3 -14 124.638 66.1780   2
  18   3 -13 75.5071 56.9739   2
  18  -3 -13 13.1101 32.5919   2
  18   3 -12 60.5508 53.4256   2
  18  -3 -12 50.1421 40.6578   2
  18   3 -11 149.041 69.1382   2
  18  -3 -11 108.277 43.1175   2
  18   3 -10 43.4952 40.2363   2
  18  -3 -10 59.7312 36.1755   2
  18   3  -9 103.890 60.2278   2
  18  -3  -9 126.924 48.4484   2
  18   3  -8 166.707 69.3021   2
  18  -3  -8 211.214 58.0141   2
  18   3  -7 864.507 143.545   3
  18  -3  -7 992.918 117.818   2
 -18   3   7 852.581 124.532   2
  18   3  -7 740.290 135.993   2
  18   3  -6 58.2549 32.2743   3
  18   3  -6 102.511 56.9076   2
 -18   3   6 7.65152 25.4634   2
  18  -3  -6 39.0037 30.2091   2
  18  -3  -6 81.1345 20.2947   1
  18   3  -5 178.838 67.0302   3
  18  -3  -5 156.188 26.4762   1
  18   3  -5 246.267 81.6491   2
 -18   3   5 126.278 53.5073   2
  18  -3  -5 220.217 55.9364   2
  18   3  -4-3.05687 28.6841   3
  18   3  -4-26.1306 44.1226   2
 -18   3   4 55.5550 38.5795   2
  18   3  -4 166.006 53.6542   1
  18  -3  -4 115.351 41.1667   2
  18  -3  -3 297.254 64.1662   2
  18   3  -3 227.032 66.3005   3
  18   3  -3 243.389 69.4644   2
 -18   3   3 133.428 47.6996   2
  18   3  -3 296.094 68.7389   1
  18  -3  -2 16.8487 22.2073   2
  18   3  -2-54.9658 37.6789   3
  18   3  -2-55.6161 59.4840   2
 -18   3   2-10.8771 29.3463   2
  18   3  -2 15.2285 22.5070   1
  18   3  -1 174.921 47.6903   1
  18  -3  -1 150.112 44.6996   2
  18   3  -1 190.948 68.9928   2
 -18   3   1 184.805 66.8381   2
  18  -3   0 36.5991 23.4258   2
  18   3   0 112.176 56.2980   2
  18   3   0 75.2071 33.3236   1
 -18   3   0-11.4708 29.9567   2
  18   3   1 635.626 100.780   1
 -18   3  -1 628.134 110.352   2
  18   3   1 441.223 96.2982   2
  18   3   2 56.0905 50.6151   2
  18   3   2-0.78035 23.2593   1
 -18   3  -2 17.7795 20.5714   2
 -18   3  -3 320.451 83.8548   2
  18   3   3 775.635 135.706   2
  18   3   4 596.089 114.959   2
  18   3   5 127.451 65.1094   2
  18   3   6 26.6114 25.4477   2
  18   3   7-9.27087 33.4809   2
  18  -3   7 33.4304 30.2568   3
  18   3   7 32.4100 21.1202   3
  18  -3   8 0.25147 26.9824   3
  18   3   8-8.52921 23.4858   3
  18  -3   9-65.3555 59.6681   3
  18   3   9 70.5062 34.2584   3
  18  -3  10 511.595 120.238   3
  18   3  10 367.504 76.5213   3
  18  -3  11 113.184 61.9089   3
  18   3  11 51.0557 42.9258   3
  18  -3  12 135.142 67.6808   3
  18  -3  13-8.97047 32.2019   3
  18  -3  14 76.2683 60.5625   3
  18  -3  15 72.5398 50.8919   3
  18  -3  16-109.141 67.0017   3
  18   4 -16-34.0818 48.5322   2
  18   4 -15-125.834 78.9569   2
  18   4 -14 175.352 77.5579   2
  18   4 -13 30.2892 50.4088   2
  18   4 -12 19.8996 26.2802   2
  18   4 -11 22.5981 57.8194   2
  18  -4 -11 10.7325 23.8158   2
  18   4 -10 147.226 75.4432   2
  18  -4 -10 26.6341 25.5076   2
  18   4  -9 149.452 70.8927   2
  18  -4  -9 55.5759 29.4165   2
  18   4  -8 10.1066 33.6382   2
  18  -4  -8 63.9720 30.0871   2
  18   4  -7 33.6083 31.7780   3
  18   4  -7-32.4447 36.0676   2
  18  -4  -7 8.95336 17.5472   2
  18   4  -6 156.492 52.5123   3
  18   4  -6 213.143 82.3923   2
  18  -4  -6 134.568 40.0532   2
  18   4  -5-68.8542 36.3384   3
  18  -4  -5-19.5940 22.7030   2
 -18   4   5-2.35893 23.0313   2
  18   4  -5-25.8535 40.5179   2
  18  -4  -4-4.21228 18.4703   2
  18   4  -4-0.74946 27.4381   1
 -18   4   4-5.74723 22.5867   2
  18   4  -4 18.1920 26.2540   2
  18   4  -3 358.521 73.4805   3
  18  -4  -3 324.240 59.0557   2
  18   4  -3 230.334 80.9904   2
 -18   4   3 343.470 74.0279   2
  18   4  -3 312.887 68.9080   1
  18   4  -2 98.2011 41.9057   3
  18  -4  -2 113.853 37.9635   2
 -18   4   2 138.772 48.9442   2
  18   4  -2 82.4186 50.2222   2
  18   4  -2 78.7765 38.7710   1
  18   4  -1 72.6353 39.5111   1
 -18   4   1 43.9269 33.9737   2
  18   4  -1 36.9368 31.3018   2
 -18   4   0 36.1981 31.1655   2
  18   4   0 40.3932 31.9625   2
  18   4   0-5.22103 27.4362   1
  18   4   1 61.2824 26.9522   1
 -18   4  -1 63.6834 33.4447   2
  18   4   1 149.836 60.8198   2
  18   4   2 187.724 61.0800   1
  18   4   2 172.999 42.1478   3
 -18   4  -2 151.331 50.4925   2
  18   4   2 222.283 74.3749   2
 -18   4  -3-25.0813 27.4641   2
  18   4   3-25.6365 43.9639   2
  18   4   3 18.0982 16.6558   3
  18   4   3-10.2439 27.7660   1
 -18   4  -4 25.3963 30.2040   2
  18   4   4 30.1891 41.8823   2
  18   4   4 52.6977 27.8527   3
  18   4   5 751.582 133.742   2
  18   4   5 756.446 81.7662   3
  18   4   6 49.5573 32.9128   2
  18   4   6 118.006 35.5461   3
  18   4   7 326.892 88.2325   2
  18  -4   7 423.159 103.772   3
  18   4   8 986.096 157.113   2
  18  -4   8 1052.90 173.344   3
  18  -4   9 24.2879 49.5594   3
  18  -4  10 762.054 154.800   3
  18  -4  11 28.0025 33.5359   3
  18  -4  12 46.3169 37.5364   3
  18  -4  13-146.936 75.4867   3
  18  -4  14 9.47785 59.7974   3
  18   5 -15 20.8137 51.5053   2
  18   5 -14 7.25130 40.2228   2
  18   5 -13 151.665 74.9714   2
  18   5 -12 56.1871 37.6403   2
  18   5 -11 54.6570 42.4005   2
  18   5 -10-8.24368 30.8761   2
  18   5  -9 62.5761 49.3156   2
  18   5  -8 123.380 71.8319   2
  18   5  -7 171.812 71.5538   2
  18   5  -6-4.90222 27.8051   2
  18   5  -5 0.53248 48.2849   2
  18   5  -4 73.8441 45.2935   2
  18   5  -4 11.6581 24.5818   1
  18   5  -3-13.1344 26.6042   1
  18   5  -3-69.9877 64.4455   2
  18   5  -2 145.188 57.3241   2
  18   5  -2 172.750 54.0578   1
  18   5  -1 5.89749 21.9788   1
  18   5  -1 16.7512 47.8956   2
  18   5   0 102.551 61.3201   2
  18   5   0-47.4970 38.1753   1
  18   5   1-23.9755 33.5308   1
  18   5   1 86.4540 59.8742   2
  18   5   2 167.516 64.7154   1
  18   5   2 209.142 82.0943   2
  18   5   3-40.0889 44.8605   1
  18   5   3 10.1794 35.9551   2
  18   5   4 118.210 55.9741   2
  18   5   5 81.2452 51.0325   2
  18   5   6 176.249 70.7776   2
  18   5   7 16.0236 33.8669   2
  18  -5   7-24.6333 48.3173   3
  18   5   8 154.111 69.7886   2
  18  -5   8 145.646 76.4301   3
  18  -5   9 32.0066 41.2092   3
  18  -5  10 55.1959 51.4971   3
  18  -5  11-8.58505 41.2374   3
  18  -5  12-39.5643 39.9275   3
  18  -5  13 194.510 83.3233   3
  18   6 -13 174.299 78.3553   2
  18   6 -12-69.4589 63.1920   2
  18   6 -11 217.999 95.6353   2
  18   6 -10 72.4970 54.7708   2
  18   6  -9-20.9961 44.7133   2
  18   6  -8 76.9866 51.4938   2
  18   6  -7 39.5635 37.1679   2
  18   6  -6 59.5983 44.3228   2
  18   6  -5-21.2262 33.0868   2
  18   6  -5-19.8101 26.5851   1
  18   6  -4 175.269 80.7755   2
  18   6  -4 163.834 50.1927   1
  18   6  -3 35.3107 37.0814   1
  18   6  -3-28.0566 46.5455   2
  18   6  -2 56.8297 36.8988   1
  18   6  -2 56.4551 44.7488   2
  18   6  -1 88.5420 45.6468   1
  18   6  -1 30.9188 30.9383   2
  18   6   0-24.3905 36.5575   2
  18   6   0 82.8210 36.5570   1
  18   6   1 256.028 70.0514   1
  18   6   1 275.459 94.2239   2
  18   6   2-3.29885 28.3973   1
  18   6   2 20.4165 51.3411   2
  18   6   3-46.0710 46.2438   1
  18   6   3 79.9212 53.6791   2
  18   6   4 79.8203 50.5962   2
  18   6   5 337.415 100.027   2
  18   6   6-69.1995 47.4399   2
  18   6   7 126.931 67.5701   2
  18  -6   7 24.5102 35.1548   3
  18   6   8 175.478 66.0761   2
  18  -6   8 99.9232 65.3682   3
  18  -6   9-12.4914 47.6050   3
  18  -6  10-15.5030 37.9671   3
  18   7 -10-25.9270 28.8443   2
  18   7  -9 81.1334 56.5804   2
  18   7  -8-37.3768 50.9196   2
  18   7  -7 42.9487 29.8873   2
  18   7  -6 432.434 112.968   2
  18   7  -6 552.636 106.127   1
  18   7  -5 34.5268 32.1900   1
  18   7  -5 25.9099 28.3631   2
  18   7  -4 24.2431 35.9586   1
  18   7  -4 12.4026 41.4330   2
  18   7  -3-46.6655 38.8650   2
  18   7  -3-63.4595 46.2816   1
  18   7  -2-7.90132 23.2101   1
  18   7  -2 8.23735 41.0658   2
  18   7  -1-39.6644 28.0511   1
  18   7  -1 65.7056 50.6356   2
  18   7   0-9.20549 39.2948   1
  18   7   0 182.221 67.0521   2
  18   7   1-72.3592 43.8762   1
  18   7   1 54.7781 50.6399   2
  18   7   2-39.4925 34.8053   1
  18   7   2-11.4700 34.9065   2
  18   7   3-85.3419 62.9923   1
  18   7   3 21.0397 30.6743   2
  18   7   4-48.7271 63.8355   2
  18   7   5 44.8423 46.4021   2
  18   7   6 295.286 91.4495   2
  18   7   7-65.2583 50.7742   2
  18  -7   7-23.4321 72.6611   3
  18   7   8 11.3296 36.8937   2
  18   8  -6 90.8017 59.7752   2
  18   8  -6-62.8466 56.8070   1
  18   8  -5-57.1438 50.9194   2
  18   8  -5 45.4671 48.9369   1
  18   8  -4 159.762 86.4702   2
  18   8  -4 46.8279 30.3628   1
  18   8  -3-13.0432 33.4767   1
  18   8  -3 4.86917 43.6728   2
  18   8  -2 51.4123 44.4766   1
  18   8  -2 77.6171 67.7838   2
  18   8  -1 39.6206 36.7432   2
  18   8  -1 53.9936 45.3176   1
  18   8   0 350.201 90.9157   1
  18   8   0 260.733 84.6396   2
  18   8   1 16.1250 34.4455   1
  18   8   1 53.6308 41.7827   2
  18   8   2 5.02397 30.9255   1
  18   8   2-118.182 64.1681   2
  18   8   3 36.0778 34.8800   2
  18   8   3 42.4179 51.2614   1
  18   8   4 15.5958 29.8193   2
  19   0 -20 32.2211 42.6315   2
  19   0 -19 22.9813 51.3936   2
  19   0 -18-61.5992 49.0248   2
  19   0 -17 23.8642 41.4527   2
  19   0 -16-64.3034 49.9816   2
  19   0 -15-30.0122 36.2608   2
  19   0 -14 29.1768 51.5520   2
  19   0 -13 10.0765 29.8510   2
  19   0 -12-27.4100 27.4550   2
  19   0 -11 141.470 61.5941   2
  19   0 -10-14.4392 24.6753   2
  19   0  -9 388.391 96.1038   2
  19   0  -8 101.007 56.8197   2
  19   0  -7 31.0003 31.9979   2
  19   0  -6-9.51845 35.1467   2
  19   0  -5 1560.11 180.350   2
  19   0  -5 1983.64 142.876   1
  19   0  -4 90.9197 56.3244   2
  19   0  -4-27.9126 15.7601   1
  19   0  -3 536.387 74.3422   1
  19   0  -3 450.510 95.3977   2
  19   0  -2-17.8687 24.6284   1
  19   0  -2-14.3619 25.8212   2
  19   0  -1 859.888 96.5873   1
  19   0  -1 903.556 130.152   2
  19   0   0-48.8881 33.2255   2
  19   0   1 113.759 40.9609   2
  19   0   2-19.9758 40.3384   2
  19   0   3 205.022 65.7689   2
  19   0   4 33.6023 28.8643   2
  19   0   5 422.680 93.3978   2
  19   0   6 9.08667 26.4454   3
  19   0   7 68.4119 50.6621   3
  19   0   8-14.8983 24.6684   3
  19   0   9-31.7536 41.5823   3
  19   0  10 59.4269 43.1039   3
  19   0  11-11.7219 29.9975   3
  19   0  12-59.0016 45.7150   3
  19   0  13 51.5254 60.0347   3
  19   0  14 35.4173 39.9032   3
  19   0  15-116.390 62.2674   3
  19   0  16-59.6391 49.8900   3
  19   0  17 4.13874 40.3852   3
  19   0  18 38.0249 40.9707   3
  19  -1 -20 40.3868 39.2910   2
  19   1 -19 0.98180 29.8792   2
  19  -1 -19 42.2974 55.9843   2
  19   1 -18 18.0915 47.6918   2
  19  -1 -18 46.6040 45.1118   2
  19   1 -17 9.52267 51.8395   2
  19  -1 -17 46.2163 35.1485   2
  19   1 -16-6.25506 43.0685   2
  19  -1 -16 4.35714 27.6529   2
  19  -1 -15-27.9815 32.8139   2
  19   1 -15 2.30786 29.0525   2
  19   1 -14 20.8142 29.1261   2
  19  -1 -14 96.5744 67.0725   2
  19   1 -13 5.94202 29.0461   2
  19  -1 -13 34.0615 27.9870   2
  19   1 -12-44.1853 41.5392   2
  19  -1 -12 43.8463 43.4000   2
  19   1 -11 87.8824 54.5312   2
  19  -1 -11 55.6252 40.4555   2
  19   1 -10-1.72847 32.6963   2
  19  -1 -10-29.5312 38.4257   2
  19   1  -9-13.0091 30.2798   2
  19  -1  -9-56.9635 51.4390   2
  19   1  -8 319.176 88.9549   2
  19  -1  -8 295.047 82.0388   2
  19   1  -7-48.2976 47.3988   2
  19  -1  -7 28.2081 40.3585   2
  19   1  -6 68.2433 51.7464   2
  19  -1  -6-59.0370 44.1408   2
  19  -1  -5 532.674 66.9980   1
  19   1  -5 491.538 107.549   2
  19  -1  -5 450.124 91.4456   2
  19   1  -5 505.827 82.8703   1
  19  -1  -4-9.08907 16.7207   1
  19   1  -4-20.1599 38.9904   2
  19   1  -4 27.5517 30.2335   1
  19  -1  -4-50.3247 36.4280   2
  19   1  -3-5.17154 22.6753   1
  19  -1  -3 3.08580 13.5367   1
  19  -1  -3 8.47273 25.5390   2
  19   1  -2-2.51273 17.5383   1
  19  -1  -2 16.3833 22.1170   1
  19  -1  -2-33.5472 35.7803   2
  19  -1  -1 33.6078 37.7042   2
  19   1  -1 109.105 38.7456   1
  19   1  -1 56.2945 35.3824   2
  19   1   0 1426.54 172.164   2
  19  -1   0 1507.93 163.780   2
  19   1   0 1617.38 143.632   1
  19   1   1 687.077 117.726   2
  19  -1   1 714.658 111.658   2
  19   1   2 243.454 64.3999   2
  19  -1   2 203.562 63.6356   2
  19   1   3 228.879 76.9006   2
  19  -1   3 215.087 64.1322   2
  19   1   4-1.82366 25.0340   2
  19   1   5 29.7254 30.5528   2
  19   1   5 34.6773 33.5437   3
  19  -1   6 109.757 51.2800   3
  19   1   6 237.129 79.2975   2
  19   1   6 194.268 58.0642   3
  19  -1   7-47.8311 41.0705   3
  19   1   7 8.87166 37.4763   3
  19  -1   8 46.4751 32.7373   3
  19   1   8-8.80354 28.7439   3
  19  -1   9 81.9288 47.6797   3
  19   1   9 45.0499 31.1360   3
  19  -1  10-0.24334 29.0008   3
  19   1  10-42.2296 37.4979   3
  19  -1  11-8.87962 39.0737   3
  19   1  11 14.1847 37.3949   3
  19  -1  12-9.43717 34.1073   3
  19   1  12-26.5388 41.8073   3
  19  -1  13 38.4016 49.7779   3
  19   1  13 67.6192 48.7587   3
  19  -1  14-32.7400 39.7582   3
  19   1  14-49.1682 41.3350   3
  19  -1  15-78.1656 56.2523   3
  19   1  15-138.558 62.7880   3
  19  -1  16-17.7590 37.1030   3
  19   1  16 69.8691 55.8954   3
  19  -1  17-42.9807 45.9453   3
  19  -1  18 58.3951 60.4574   3
  19  -2 -19 145.996 72.9986   2
  19   2 -18 124.015 79.0888   2
  19  -2 -18-51.7260 54.3276   2
  19   2 -17-6.40659 27.6790   2
  19  -2 -17-29.1713 43.0251   2
  19  -2 -16 18.9339 27.8684   2
  19   2 -16 36.7652 58.7521   2
  19  -2 -15 41.4658 45.0540   2
  19   2 -15-31.9684 35.1443   2
  19   2 -14 2.32854 41.9553   2
  19  -2 -14-3.76327 23.8842   2
  19   2 -13 14.4564 29.0628   2
  19  -2 -13-39.3890 38.7148   2
  19   2 -12 35.6936 57.4083   2
  19  -2 -12 2.76248 24.8431   2
  19   2 -11 56.9275 44.3696   2
  19  -2 -11 59.2383 38.1683   2
  19   2 -10 218.671 81.1526   2
  19  -2 -10 175.941 56.4951   2
  19   2  -9 14.3131 35.3167   2
  19  -2  -9-6.95223 23.9572   2
  19   2  -8 367.126 104.821   2
  19  -2  -8 419.223 86.9012   2
  19   2  -7-62.7436 52.4639   2
  19  -2  -7-7.57378 25.8607   2
  19  -2  -6 502.956 58.8673   1
  19   2  -6 391.210 99.7997   2
  19  -2  -6 417.493 85.0699   2
  19  -2  -5 353.606 47.6561   1
  19   2  -5 272.451 85.8989   3
  19   2  -5 292.264 84.7736   2
  19  -2  -5 258.358 66.0347   2
  19   2  -4 56.0167 27.9383   1
  19  -2  -4 20.4906 16.3553   1
  19   2  -4 145.620 66.1826   2
  19  -2  -4 114.089 48.4050   2
  19   2  -3 7.98485 34.8261   2
  19   2  -3 18.7746 26.7606   1
  19  -2  -3 35.4517 24.6783   2
  19  -2  -2 39.7475 31.3857   2
  19   2  -2 31.7154 29.1335   1
  19   2  -2-0.22231 26.0388   2
  19  -2  -1 34.2607 34.3793   2
  19   2  -1-33.7761 44.5148   2
  19   2  -1 1.86481 25.0485   1
  19  -2   0 24.5942 33.0926   2
  19   2   0-20.7119 29.5703   1
  19   2   0 73.1363 48.4167   2
  19   2   1-47.4602 29.2169   1
  19  -2   1 3.58157 29.7269   2
  19   2   1-12.6213 29.3863   2
  19   2   2-66.2412 55.4134   2
  19  -2   2 20.3016 18.0407   2
  19   2   3-11.3202 24.9476   2
  19   2   4 42.5330 23.2832   2
  19   2   4 7.12898 18.9183   3
  19   2   5 121.747 57.2223   2
  19   2   5 12.9277 24.1175   3
  19   2   6-24.4711 34.6747   2
  19   2   6 20.8501 36.3945   3
  19  -2   7-30.9986 54.1331   3
  19   2   7 21.2452 22.0138   3
  19  -2   8 5.37627 36.5663   3
  19   2   8 84.9090 42.5899   3
  19  -2   9-12.3061 33.4280   3
  19   2   9 142.621 58.7566   3
  19  -2  10 7.34777 28.7740   3
  19   2  10-8.81520 31.5411   3
  19  -2  11 133.173 67.6128   3
  19   2  11 107.558 50.3809   3
  19  -2  12-29.7259 42.2448   3
  19   2  12-121.840 52.9458   3
  19  -2  13 29.8838 48.1899   3
  19   2  13 16.5712 26.6706   3
  19  -2  14 29.2748 30.8172   3
  19  -2  15 127.834 70.9246   3
  19  -2  16 62.9963 60.7173   3
  19   3 -17 105.080 69.4816   2
  19   3 -16 93.6970 56.0966   2
  19   3 -15-25.5752 60.6184   2
  19   3 -14 10.4058 31.6723   2
  19  -3 -14 70.6988 45.1228   2
  19   3 -13 122.829 82.0552   2
  19  -3 -13 11.5011 19.1844   2
  19   3 -12 690.740 144.331   2
  19  -3 -12 861.769 128.236   2
  19   3 -11 51.4675 42.9473   2
  19  -3 -11 3.40333 28.7399   2
  19   3 -10-22.4798 37.8119   2
  19  -3 -10 19.4369 28.9245   2
  19   3  -9 39.1426 35.0625   2
  19  -3  -9 21.3358 24.4478   2
  19   3  -8 11.1449 38.7057   2
  19  -3  -8 2.13242 16.9018   2
  19  -3  -7 8.46714 9.50918   1
  19  -3  -7 26.4584 24.5397   2
  19   3  -6 30.1601 43.2722   2
 -19   3   6 27.8794 22.7970   2
  19  -3  -6 35.8099 28.5814   2
  19  -3  -6 42.9532 13.3479   1
  19   3  -5 34.2536 45.2694   3
  19   3  -5 71.2458 53.8073   2
 -19   3   5-8.02286 21.9660   2
  19  -3  -5 7.30697 7.12186   1
  19  -3  -5-2.63064 15.6375   2
  19  -3  -4 36.6693 23.6517   2
  19   3  -4 39.9252 29.2406   1
  19   3  -4 52.1677 41.9724   3
  19   3  -4 154.826 72.4820   2
 -19   3   4 41.0472 40.7973   2
  19   3  -3 219.854 57.7067   1
  19  -3  -3 162.888 47.0176   2
  19   3  -3 198.213 77.8676   3
 -19   3   3 254.697 74.7509   2
  19   3  -3 233.947 78.4633   2
  19   3  -2 15.2561 21.9072   3
  19  -3  -2 21.4254 23.0195   2
  19   3  -2-25.5129 24.1036   1
 -19   3   2 47.1971 34.9190   2
  19   3  -2 51.6831 42.3283   2
  19  -3  -1 307.311 64.5061   2
 -19   3   1 270.811 82.1357   2
  19   3  -1 363.110 91.6074   2
  19   3  -1 362.140 77.9250   1
  19  -3   0-7.27707 29.5641   2
  19   3   0-20.2077 21.7935   1
 -19   3   0-3.81495 17.4582   2
  19   3   0 1.86506 34.5854   2
  19   3   1 142.835 52.1775   1
 -19   3  -1 91.9562 48.7908   2
  19   3   1 175.612 69.1797   2
  19   3   2 7.28196 23.1265   2
  19   3   2-17.5373 24.8684   1
  19   3   3-189.737 83.9430   2
  19   3   3 119.361 40.7845   3
  19   3   4 255.657 79.9831   2
  19   3   4 286.590 64.1865   3
  19   3   5 30.1416 37.0121   2
  19   3   5 26.8667 27.7989   3
  19   3   6 250.663 81.4705   2
  19   3   6 241.896 59.5603   3
  19   3   7-16.0912 32.7949   2
  19  -3   7 0.26015 39.3579   3
  19   3   7-30.6355 33.6412   3
  19  -3   8-92.9423 58.8570   3
  19   3   8-42.6798 29.2299   3
  19  -3   9 158.173 71.5083   3
  19   3   9 122.270 44.5193   3
  19  -3  10 363.954 106.273   3
  19  -3  11 4.90050 31.9803   3
  19  -3  12 144.490 69.3749   3
  19  -3  13 45.2230 61.5239   3
  19  -3  14 100.482 69.5679   3
  19  -3  15-84.6719 61.1785   3
  19   4 -15 32.2865 69.5974   2
  19   4 -14-6.43931 32.6602   2
  19   4 -13-35.6527 56.3458   2
  19   4 -12 254.355 97.6385   2
  19   4 -11-36.6294 51.1236   2
  19   4 -10 52.8555 53.9291   2
  19   4  -9 283.461 98.0729   2
  19  -4  -9 335.593 68.6348   2
  19   4  -8 440.692 110.717   2
  19  -4  -8 257.652 62.7753   2
  19   4  -7 307.738 100.601   2
  19  -4  -7 232.903 55.1037   2
  19  -4  -6 130.879 45.5683   2
  19   4  -6 134.441 74.2176   2
  19  -4  -5-24.5586 23.0355   2
  19   4  -5-8.85158 27.9373   1
  19   4  -5-94.4534 56.0927   2
  19  -4  -4 66.0428 36.4910   2
  19   4  -4-89.9405 55.1646   2
  19   4  -4 105.092 48.2575   1
  19   4  -3 10.3032 19.7891   1
  19  -4  -3-19.2256 26.5586   2
  19   4  -3 50.7687 47.9209   2
  19   4  -2-1.40385 27.7072   1
  19   4  -2-93.4916 62.4767   2
  19   4  -1 19.7014 31.2383   1
  19   4  -1 44.4365 39.1949   2
  19   4   0 55.5067 40.2780   1
  19   4   0-99.5278 56.1331   2
  19   4   1 111.720 56.3148   1
  19   4   1 65.0009 24.9597   2
  19   4   2 19.7253 37.3027   2
  19   4   2-12.1644 22.4888   3
  19   4   3-8.67693 37.2526   2
  19   4   3 40.1584 25.9728   3
  19   4   3-23.1197 31.9725   1
  19   4   4-82.5140 57.7736   2
  19   4   5 595.772 122.823   2
  19   4   6 184.229 78.9758   2
  19   4   7 984.729 160.555   2
  19  -4   7 779.185 153.661   3
  19   4   8-81.1601 68.7749   2
  19  -4   8 93.4059 55.3763   3
  19  -4   9 457.998 121.939   3
  19  -4  10 99.3170 69.7191   3
  19  -4  11-66.9510 56.8568   3
  19  -4  12-5.73245 47.3106   3
  19  -4  13 15.0950 44.7202   3
  19   5 -13 150.559 83.5637   2
  19   5 -12 36.9260 28.4555   2
  19   5 -11 15.7918 35.1845   2
  19   5 -10 103.777 75.5977   2
  19   5  -9 80.3597 62.3354   2
  19   5  -8 0.29632 31.7098   2
  19   5  -7 144.357 60.1515   2
  19   5  -6 105.287 58.6958   2
  19   5  -5-32.6555 41.5909   1
  19   5  -5 0.27864 33.1850   2
  19   5  -4 73.3249 39.2800   2
  19   5  -4 105.840 49.5656   1
  19   5  -3-42.3018 52.8495   2
  19   5  -3 6.10721 19.4056   1
  19   5  -2-67.6437 46.4143   1
  19   5  -2 12.4119 27.3057   2
  19   5  -1-27.4257 37.1642   1
  19   5  -1 14.5562 41.8196   2
  19   5   0 81.6641 32.9860   1
  19   5   0 51.0304 47.7903   2
  19   5   1 14.7975 23.1881   1
  19   5   1-35.2067 39.7374   2
  19   5   2 28.4375 39.8484   1
  19   5   2 46.2744 57.6750   2
  19   5   3-20.6302 31.2617   2
  19   5   3 40.1818 27.1665   1
  19   5   4 561.850 120.078   2
  19   5   5-30.0797 49.3094   2
  19   5   6 150.032 68.8271   2
  19   5   7 127.559 59.9245   2
  19  -5   7 206.550 94.7899   3
  19   5   8 25.3408 34.5652   2
  19  -5   8-19.0020 41.0506   3
  19  -5   9 100.476 65.8921   3
  19  -5  10-207.263 87.4621   3
  19  -5  11 211.333 94.2901   3
  19   6 -11 54.0398 60.5754   2
  19   6 -10-20.3995 50.0898   2
  19   6  -9 74.0641 54.2982   2
  19   6  -8 44.3920 49.9950   2
  19   6  -7 29.5761 44.4896   2
  19   6  -6 26.8178 40.7031   2
  19   6  -6 26.2606 26.4031   1
  19   6  -5-64.2477 53.5697   1
  19   6  -5 45.1658 46.3917   2
  19   6  -4 103.472 44.1459   1
  19   6  -4-36.0651 49.8703   2
  19   6  -3-89.9435 74.8453   2
  19   6  -3-47.5573 28.3640   1
  19   6  -2 84.3941 47.1519   1
  19   6  -2 231.862 87.9341   2
  19   6  -1 92.6464 40.7523   1
  19   6  -1 32.2697 34.9505   2
  19   6   0 148.931 61.7310   1
  19   6   0 19.7949 40.6307   2
  19   6   1 14.3511 27.9775   1
  19   6   1-181.298 74.3781   2
  19   6   2 84.1112 55.0423   1
  19   6   2 131.298 72.2381   2
  19   6   3 249.561 87.7092   2
  19   6   3 160.809 65.0265   1
  19   6   4 330.755 100.616   2
  19   6   5 508.450 119.043   2
  19   6   6-25.0095 38.0318   2
  19   6   7 10.1227 31.3161   2
  19  -6   7 0.98248 38.6677   3
  19   6   8 9.61776 34.0753   2
  19  -6   8-43.8201 39.8736   3
  19   7  -7-94.4799 67.3307   2
  19   7  -7 28.5905 38.1838   1
  19   7  -6 50.9602 44.2916   2
  19   7  -6 77.2077 44.1658   1
  19   7  -5 297.378 90.2640   2
  19   7  -5 308.496 84.3329   1
  19   7  -4 76.5752 58.6815   2
  19   7  -4 86.2042 53.3272   1
  19   7  -3 8.14139 39.8744   1
  19   7  -3 25.0963 27.4031   2
  19   7  -2-12.7877 26.5127   1
  19   7  -2 105.553 44.7426   2
  19   7  -1-37.8056 60.1795   2
  19   7  -1-42.7442 46.7169   1
  19   7   0-35.6094 28.3519   1
  19   7   0 26.2358 23.5906   2
  19   7   1 82.9739 53.4044   1
  19   7   1 102.946 60.1870   2
  19   7   2 146.323 82.4752   2
  19   7   2 74.5748 50.1928   1
  19   7   3-28.8271 37.5917   2
  19   7   3 93.2738 52.1375   1
  19   7   4-2.85099 25.2503   2
  19   7   5 63.1267 44.7019   2
  20   0 -19-49.7815 46.0560   2
  20   0 -18 1.91092 37.9283   2
  20   0 -17 1.23132 48.6373   2
  20   0 -16 53.5892 55.5374   2
  20   0 -15-64.7850 52.2831   2
  20   0 -14 230.875 94.4716   2
  20   0 -13-13.9791 31.7408   2
  20   0 -12 157.451 66.6487   2
  20   0 -11-58.5803 43.8582   2
  20   0 -10-58.5163 36.1636   2
  20   0  -9 0.47867 30.2224   2
  20   0  -8 127.836 50.3569   2
  20   0  -7 30.4855 26.0242   2
  20   0  -6 14.8526 26.8229   2
  20   0  -6 48.5441 24.3982   1
  20   0  -5-0.81111 18.4231   1
  20   0  -5-14.8927 32.8118   2
  20   0  -4 69.3657 38.4537   1
  20   0  -4-4.38445 40.0103   2
  20   0  -3-35.8400 40.2120   2
  20   0  -3 9.48742 21.7467   1
  20   0  -2 14.1991 15.8551   1
  20   0  -2 49.1176 42.6629   2
  20   0  -1 7.70987 20.8706   1
  20   0  -1 107.018 52.0360   2
  20   0   0-10.2500 24.9619   2
  20   0   1 36.3514 30.8404   2
  20   0   2-1.36765 33.3796   2
  20   0   3-46.7781 44.5006   2
  20   0   4 194.774 68.6512   2
  20   0   6 28.5402 37.3744   3
  20   0   7 51.1084 51.5213   3
  20   0   8 42.5491 32.7527   3
  20   0   9-150.054 63.7249   3
  20   0  10 170.891 72.2870   3
  20   0  11 0.97313 24.7026   3
  20   0  12 100.619 68.5309   3
  20   0  13 0.51657 34.6730   3
  20   0  14-66.0033 48.8101   3
  20   0  15-98.3771 59.9391   3
  20   0  16 18.7535 39.9747   3
  20   0  17 3.93244 54.0063   3
  20  -1 -19-152.956 73.0970   2
  20   1 -18-83.2225 58.6229   2
  20  -1 -18-146.328 70.9306   2
  20  -1 -17 91.0659 68.1624   2
  20   1 -17 14.1342 33.7128   2
  20   1 -16 46.8460 31.2205   2
  20  -1 -16 66.2750 50.8112   2
  20   1 -15 41.6354 44.2752   2
  20  -1 -15 87.6612 57.1698   2
  20   1 -14 119.699 70.5490   2
  20  -1 -14 79.1323 57.0974   2
  20   1 -13 62.7062 45.0639   2
  20  -1 -13 73.3538 58.4734   2
  20   1 -12-98.6367 59.2282   2
  20  -1 -12-13.8827 41.1530   2
  20   1 -11 114.966 57.4141   2
  20  -1 -11 345.656 95.4269   2
  20   1 -10 2.87677 27.1849   2
  20  -1 -10-17.1772 25.5146   2
  20   1  -9-1.79644 35.6877   2
  20  -1  -9 24.3567 37.4327   2
  20   1  -8 69.0041 50.1600   2
  20  -1  -8-22.8278 34.6152   2
  20   1  -7 73.6492 55.4929   2
  20  -1  -7-17.4020 41.3683   2
  20   1  -6 87.2543 42.7527   2
  20  -1  -6-26.5965 42.4758   2
  20  -1  -6 51.3712 29.5980   1
  20   1  -5 1183.81 167.243   2
  20   1  -5 1062.13 114.217   1
  20  -1  -5 931.098 136.083   2
  20  -1  -5 1319.37 107.257   1
  20   1  -4 212.957 72.5565   2
  20  -1  -4 226.084 66.1090   2
  20  -1  -4 212.338 47.6698   1
  20   1  -4 192.886 49.6385   1
  20   1  -3 322.385 63.4728   1
  20  -1  -3 314.511 55.1264   1
  20   1  -3 291.506 85.7739   2
  20  -1  -3 264.801 70.0310   2
  20   1  -2 416.493 73.3370   1
  20   1  -2 509.787 106.294   2
  20  -1  -2 333.842 57.2991   1
  20  -1  -2 243.641 66.3451   2
  20  -1  -1 19.5754 22.8182   2
  20   1  -1 9.50108 19.6471   1
  20   1  -1-2.37453 38.8156   2
  20   1   0 107.567 59.1270   2
  20  -1   0 22.1346 21.3865   2
  20   1   0 32.8513 27.6760   1
  20   1   1 25.2242 39.6682   2
  20  -1   1 62.6382 43.3216   2
  20   1   2 353.876 95.1255   2
  20  -1   2 396.661 82.7387   2
  20   1   3 155.844 70.9924   2
  20  -1   3 145.044 56.1979   2
  20   1   4 30.7862 31.2918   2
  20   1   5 15.7050 26.3627   2
  20   1   5 17.8004 21.8479   3
  20  -1   6 8.88430 30.6118   3
  20   1   6-12.0370 21.4206   3
  20  -1   7 75.2392 50.5344   3
  20   1   7 76.0972 37.9172   3
  20  -1   8 141.408 63.5807   3
  20   1   8 99.6891 56.3665   3
  20  -1   9 62.9538 37.1843   3
  20   1   9 127.526 54.5828   3
  20  -1  10-93.2620 53.9758   3
  20   1  10 70.0363 48.4019   3
  20  -1  11 79.5829 65.6651   3
  20   1  11 68.0408 49.5919   3
  20  -1  12 52.1477 47.0647   3
  20   1  12 112.254 61.0228   3
  20  -1  13-15.0953 37.6822   3
  20   1  13-18.6115 40.3570   3
  20  -1  14-0.28862 27.3734   3
  20   1  14 32.9214 34.8841   3
  20  -1  15 115.613 80.1648   3
  20  -1  16 30.9158 28.8670   3
  20  -1  17-67.5186 53.6495   3
  20  -2 -17-2.77247 29.5674   2
  20   2 -17-126.157 70.5086   2
  20   2 -16 5.82488 34.7407   2
  20  -2 -16-51.0274 42.2926   2
  20   2 -15 25.6622 37.7556   2
  20  -2 -15-85.1540 50.4378   2
  20   2 -14 0.30639 39.7489   2
  20  -2 -14 6.30293 42.8668   2
  20   2 -13 179.078 82.9131   2
  20  -2 -13 218.361 69.5257   2
  20   2 -12 97.7728 68.7669   2
  20  -2 -12 12.2331 25.0419   2
  20   2 -11 229.007 87.4983   2
  20  -2 -11 287.436 79.8392   2
  20   2 -10-29.3955 37.5933   2
  20  -2 -10-6.34258 36.1425   2
  20   2  -9 83.3286 51.1748   2
  20  -2  -9 11.3309 25.1374   2
  20   2  -8 26.3629 31.4982   2
  20  -2  -8 37.8064 30.7441   2
  20  -2  -7-12.0789 15.8420   1
  20   2  -7-42.6946 48.3565   2
  20  -2  -7-4.10527 19.3135   2
  20  -2  -6 9.33007 17.0382   1
  20  -2  -6-35.5818 33.5736   2
  20   2  -5 84.6113 36.6003   1
  20   2  -5 161.288 64.3254   2
  20  -2  -5 115.073 30.2109   1
  20  -2  -5 98.6053 44.3615   2
  20  -2  -4 34.3587 16.6069   1
  20   2  -4 8.72699 21.6802   1
  20   2  -4 15.5714 36.7730   2
  20  -2  -4 30.3959 21.9639   2
  20  -2  -3 0.49473 30.8339   2
  20   2  -3-7.31316 24.9750   1
  20   2  -3 62.5652 50.5922   2
  20   2  -2 6.79320 17.8635   1
  20  -2  -2-31.0657 28.0046   2
  20   2  -2 13.1963 40.4100   2
  20  -2  -1-17.8835 34.8090   2
  20   2  -1-30.0546 36.6640   1
  20   2  -1 62.9341 45.6339   2
  20   2   0 171.336 51.2193   1
  20  -2   0 212.700 62.8649   2
  20   2   0 140.760 62.0362   2
  20   2   1 17.0007 29.0539   2
  20  -2   1 59.1109 38.0623   2
  20   2   1-31.9938 32.7762   1
  20   2   2 645.409 122.554   2
  20   2   3-36.7795 24.3341   2
  20   2   4 22.1813 29.7520   2
  20   2   4-6.45244 26.8309   3
  20   2   5 150.828 64.4103   2
  20   2   5 21.3571 20.3632   3
  20   2   6-14.5208 47.9537   2
  20   2   6 53.5192 41.3829   3
  20  -2   7 80.8412 52.0624   3
  20   2   7-78.6611 41.3715   3
  20  -2   8 78.6546 41.7216   3
  20   2   8 26.2035 20.8429   3
  20  -2   9 120.487 60.3259   3
  20   2   9 16.5538 25.0200   3
  20  -2  10-48.9540 57.4160   3
  20   2  10-108.000 49.4156   3
  20  -2  11 635.761 141.679   3
  20   2  11 621.968 113.793   3
  20  -2  12-64.0321 52.9460   3
  20  -2  13 32.1201 47.8781   3
  20  -2  14-204.779 85.4759   3
  20  -2  15 50.5828 60.2646   3
  20   3 -16 208.863 88.2890   2
  20   3 -15-19.1312 56.1589   2
  20   3 -14-6.09147 53.6063   2
  20   3 -13 18.4080 32.9076   2
  20   3 -12 7.26085 60.1095   2
  20  -3 -12 3.89420 29.5611   2
  20   3 -11 13.8666 34.0744   2
  20  -3 -11 190.266 56.9952   2
  20   3 -10 219.279 91.8560   2
  20  -3 -10 165.389 62.1177   2
  20   3  -9 0.28447 51.7061   2
  20  -3  -9 5.47515 18.8102   2
  20   3  -8 116.360 65.1930   2
  20  -3  -8 95.8759 35.4316   2
  20   3  -7 8.96694 47.8486   2
  20  -3  -7-0.15604 22.5071   2
  20   3  -6 49.1330 52.1340   2
  20  -3  -6 40.3579 22.2359   2
  20   3  -5 72.7891 44.6393   2
  20   3  -5 15.6757 22.2153   1
  20  -3  -5 61.7258 34.1146   2
  20  -3  -4-13.1969 25.3775   2
  20   3  -4 7.72275 21.1134   1
  20   3  -4-26.5897 54.0057   2
  20  -3  -3-23.8439 26.3777   2
  20   3  -3-7.31817 26.1348   1
  20   3  -3-1.75318 36.3391   2
  20   3  -2-5.60611 25.9270   1
  20  -3  -2 37.8933 26.8920   2
  20   3  -2-7.98896 29.1643   2
  20  -3  -1 247.013 59.9921   2
  20   3  -1 287.865 72.6313   1
  20   3  -1 273.854 79.9915   2
  20   3   0-3.93369 25.5799   1
  20   3   0 25.1488 35.3979   2
  20   3   1 178.934 57.1051   1
  20   3   1 299.549 80.3573   2
  20   3   2 53.4320 53.3931   2
  20   3   2 0.17815 24.0075   1
  20   3   3-33.8930 46.1912   2
  20   3   3 9.90339 24.8926   3
  20   3   4-40.7693 40.6539   2
  20   3   4 3.64991 24.7190   3
  20   3   5 1014.63 120.122   3
  20   3   5 1335.41 183.946   2
  20   3   6 202.240 77.9994   2
  20   3   6 50.1499 38.9874   3
  20   3   7 71.0106 53.4311   2
  20  -3   7-10.6082 31.2019   3
  20  -3   8 40.4293 42.0229   3
  20  -3   9-68.7307 51.8665   3
  20  -3  10 3.49617 50.6804   3
  20  -3  11 60.2503 51.8536   3
  20  -3  12 71.2264 69.8647   3
  20  -3  13-41.6849 36.5846   3
  20  -3  14 26.9397 51.9897   3
  20   4 -14 4.39714 40.6717   2
  20   4 -13-26.8460 47.0246   2
  20   4 -12-81.7733 58.9663   2
  20   4 -11 2.79019 31.7533   2
  20   4 -10 21.0066 32.1472   2
  20   4  -9 558.921 132.513   2
  20   4  -8 63.5674 57.0473   2
  20   4  -7 343.682 103.650   2
  20  -4  -6-6.01322 25.8406   2
  20   4  -6-28.9095 36.1698   2
  20  -4  -5 79.2685 35.0254   2
  20   4  -5 129.838 50.9850   1
  20   4  -5 110.369 60.9244   2
  20   4  -4-15.3030 28.1567   1
  20  -4  -4 27.9615 22.3066   2
  20   4  -4 43.2822 32.9076   2
  20  -4  -3 57.7942 28.8865   2
  20   4  -3-56.8681 47.3197   2
  20   4  -3 4.69149 29.7874   1
  20   4  -2 61.1222 33.7728   1
  20   4  -2 25.9425 49.2620   2
  20   4  -1 32.1091 40.5672   2
  20   4  -1 44.5917 42.6242   1
  20   4   0 283.733 72.9194   1
  20   4   0 404.346 104.804   2
  20   4   1 275.730 78.4617   1
  20   4   1 368.636 102.184   2
  20   4   2-74.1301 52.7535   2
  20   4   2-4.26653 38.9505   1
  20   4   3 127.486 63.3506   2
  20   4   4 443.773 105.524   2
  20   4   5 453.378 114.182   2
  20   4   6 20.9485 39.9739   2
  20   4   7 414.775 111.518   2
  20  -4   7 272.545 102.659   3
  20  -4   8 55.7915 57.0986   3
  20  -4   9-14.7629 39.4916   3
  20  -4  10 114.410 64.2441   3
  20  -4  11-90.6123 62.1587   3
  20  -4  12 10.2461 51.3786   3
  20   5 -12 54.1554 52.7451   2
  20   5 -11-33.5599 41.7486   2
  20   5 -10-25.8394 33.0843   2
  20   5  -9 19.4533 41.0696   2
  20   5  -8-109.127 64.7732   2
  20   5  -7-115.614 65.8960   2
  20   5  -6 55.5363 42.8586   2
  20   5  -6 93.0040 39.9511   1
  20   5  -5-119.263 73.3126   2
  20   5  -5 132.694 59.8846   1
  20   5  -4 5.80080 22.9296   1
  20   5  -4 8.58064 34.3860   2
  20   5  -3-67.2573 41.7947   1
  20   5  -3-45.9456 44.8638   2
  20   5  -2 293.357 74.0127   1
  20   5  -2 232.402 90.8006   2
  20   5  -1 21.7107 62.9286   2
  20   5  -1-33.0059 35.8458   1
  20   5   0 733.493 120.497   1
  20   5   0 681.820 139.786   2
  20   5   1 6.89602 29.4655   1
  20   5   1-114.531 59.9738   2
  20   5   2 40.3521 51.9879   2
  20   5   2 97.2322 56.8477   1
  20   5   3 7.25710 32.6635   2
  20   5   4 264.478 87.1028   2
  20   5   5 248.065 86.3044   2
  20   5   6-57.1841 47.2927   2
  20   5   7 355.691 97.5822   2
  20  -5   7 366.361 117.510   3
  20   5   8 431.301 113.162   2
  20  -5   8 229.186 105.433   3
  20  -5   9 32.6963 28.7377   3
  20   6  -8 103.272 73.1668   2
  20   6  -7-9.07055 25.2293   1
  20   6  -7 18.2755 44.0281   2
  20   6  -6 28.2684 40.6563   2
  20   6  -6 37.1680 31.5647   1
  20   6  -5 7.08902 43.5974   2
  20   6  -5 24.6839 26.4412   1
  20   6  -4 47.8340 38.9249   2
  20   6  -4 9.38631 27.7166   1
  20   6  -3-14.2443 27.7001   1
  20   6  -3-52.8316 58.1863   2
  20   6  -2 17.7513 38.2403   1
  20   6  -2-35.8447 38.1121   2
  20   6  -1-18.8487 40.3148   2
  20   6  -1-64.9603 44.9034   1
  20   6   0 22.7308 29.6568   1
  20   6   0 62.3925 45.8415   2
  20   6   1-0.66592 30.6498   1
  20   6   1 1.43094 40.4150   2
  20   6   2 235.759 89.5143   2
  20   6   2-88.8966 50.2421   1
  20   6   3-90.7554 55.1650   2
  20   6   3-57.4944 48.6041   1
  20   6   4-78.2346 46.1625   2
  20   6   5 445.947 113.585   2
  20   7  -6 18.5820 34.2867   1
  20   7  -5 46.0937 36.2119   1
  20   7  -4-64.4239 45.3025   1
  20   7  -3-19.7781 44.2790   1
  20   7  -2 78.0932 47.4788   1
  20   7  -1 114.689 50.1288   1
  20   7   0 37.5108 35.8233   1
  20   7   1-39.1811 35.5697   1
  20   7   2 7.28480 28.7979   1
  20   7   3-12.5399 34.2348   1
  21   0 -18 18.4771 43.0541   2
  21   0 -17 105.170 58.9318   2
  21   0 -16 24.5670 28.2618   2
  21   0 -15 151.525 69.1625   2
  21   0 -14 90.1258 62.9532   2
  21   0 -13 61.6788 50.5268   2
  21   0 -12 21.2958 28.7662   2
  21   0 -11 35.9246 36.6506   2
  21   0 -10-47.7655 44.1160   2
  21   0  -9 58.9946 35.7624   2
  21   0  -8-30.4869 54.2044   2
  21   0  -7 168.000 61.1112   2
  21   0  -6 82.8921 55.7599   2
  21   0  -6-5.90775 18.2689   1
  21   0  -5 34.5328 28.2394   1
  21   0  -5 43.6075 35.8992   2
  21   0  -4 13.8320 17.2654   1
  21   0  -4 11.7093 32.7295   2
  21   0  -3 40.4108 22.7496   1
  21   0  -3 42.8318 33.5098   2
  21   0  -2-26.8849 28.6256   1
  21   0  -2-15.2526 27.5641   2
  21   0  -1 262.279 83.0163   2
  21   0   0-7.91577 26.9424   2
  21   0   1 239.044 74.8907   2
  21   0   2-2.28836 40.4841   2
  21   0   3 261.498 80.5918   2
  21   0   4 30.2377 25.6101   2
  21   0   5 268.252 77.9857   3
  21   0   6-31.5747 35.1805   3
  21   0   7 248.526 83.2237   3
  21   0   8-43.9758 39.0481   3
  21   0   9 4.02141 26.0638   3
  21   0  10-28.2117 45.8123   3
  21   0  11-10.6068 29.9492   3
  21   0  12-122.152 62.0092   3
  21   0  13-42.8655 43.2293   3
  21   0  14 16.2826 32.7803   3
  21   0  15 15.5987 31.2506   3
  21  -1 -18 26.2828 49.2625   2
  21   1 -17-82.4080 61.4644   2
  21  -1 -17 43.4187 58.0372   2
  21   1 -16 77.7606 65.9701   2
  21  -1 -16 168.533 81.9883   2
  21   1 -15 3.78088 50.4386   2
  21  -1 -15 29.2009 36.5815   2
  21   1 -14 8.25863 49.3697   2
  21  -1 -14-41.8022 62.1182   2
  21   1 -13 29.5605 45.7827   2
  21  -1 -13 43.6195 40.0330   2
  21   1 -12-57.5928 48.1054   2
  21  -1 -12-44.0748 45.2347   2
  21   1 -11-30.0785 46.6596   2
  21  -1 -11-45.9620 38.7254   2
  21   1 -10 102.142 63.0893   2
  21  -1 -10-61.3487 38.3545   2
  21   1  -9 43.5376 43.5670   2
  21  -1  -9 68.8455 43.4303   2
  21   1  -8 133.586 59.8926   2
  21  -1  -8 104.028 48.6465   2
  21  -1  -7 435.647 68.9162   1
  21   1  -7 398.333 109.923   2
  21  -1  -7 305.570 74.7240   2
  21   1  -6 99.5369 40.5597   1
  21   1  -6 4.70463 33.0400   2
  21  -1  -6 135.105 53.4999   2
  21  -1  -6 106.187 31.1738   1
  21  -1  -5 162.378 38.9062   1
  21   1  -5 149.534 46.1647   1
  21   1  -5 214.523 79.0209   2
  21  -1  -5 201.152 66.9293   2
  21   1  -4 388.440 72.6567   1
  21  -1  -4 300.862 55.6505   1
  21   1  -4 321.922 89.8351   2
  21  -1  -4 272.944 76.6644   2
  21  -1  -3 433.800 64.2790   1
  21   1  -3 422.894 103.820   2
  21   1  -3 498.823 82.0449   1
  21  -1  -3 556.029 106.489   2
  21  -1  -2 45.7559 36.9994   2
  21   1  -2-0.80107 18.4747   1
  21   1  -2-5.54192 40.2908   2
  21  -1  -1 19.7496 32.8747   2
  21   1  -1-34.9479 31.8471   1
  21   1  -1 30.1873 38.9506   2
  21   1   0 116.221 53.2405   2
  21  -1   0 18.8577 24.6789   2
  21   1   1 120.479 59.2667   2
  21  -1   1 152.299 59.3792   2
  21   1   2 128.579 57.2953   2
  21  -1   2 136.766 55.2420   2
  21   1   3 6.49227 27.8800   2
  21  -1   3 16.1583 42.8450   2
  21   1   4 178.450 68.1649   2
  21   1   5 36.6224 42.9385   2
  21   1   5 22.4027 34.6756   3
  21  -1   6 58.5142 50.3840   3
  21   1   6-21.2283 36.1684   3
  21  -1   7 87.7530 55.9762   3
  21   1   7 53.8291 37.9625   3
  21  -1   8 17.1077 29.3195   3
  21   1   8-23.6313 22.4571   3
  21  -1   9-26.2078 34.9596   3
  21   1   9-0.21625 28.2621   3
  21  -1  10-6.09061 36.7144   3
  21   1  10 72.0147 63.7704   3
  21  -1  11 338.099 111.458   3
  21   1  11 176.983 70.0888   3
  21  -1  12 32.6581 48.3334   3
  21   1  12 27.8462 42.6205   3
  21  -1  13 100.147 66.5895   3
  21  -1  14-28.5402 36.4509   3
  21  -1  15-24.6621 38.2223   3
  21  -1  16 18.9939 51.5254   3
  21   2 -16-154.385 77.9519   2
  21   2 -15 95.1312 59.7812   2
  21  -2 -15 97.9948 48.7306   2
  21   2 -14-216.906 87.6012   2
  21  -2 -14 41.6981 27.1459   2
  21   2 -13 186.025 81.9945   2
  21  -2 -13 353.092 97.4957   2
  21   2 -12-89.6076 57.7769   2
  21  -2 -12-4.40680 33.1504   2
  21   2 -11 46.5323 53.9020   2
  21  -2 -11-21.7037 25.7164   2
  21   2 -10-45.6984 46.3080   2
  21  -2 -10-3.17526 29.2658   2
  21   2  -9 2.26282 38.7879   2
  21  -2  -9 36.6807 38.2106   2
  21   2  -8-127.227 64.5451   2
  21  -2  -8 16.8314 22.3867   2
  21   2  -7 76.7171 57.7086   2
  21  -2  -7 42.4949 34.1173   2
  21   2  -6 331.246 70.3548   1
  21   2  -6 340.197 108.782   2
  21  -2  -6 225.352 67.7409   2
  21   2  -5 61.0467 43.6101   1
  21   2  -5 28.9879 28.1597   2
  21  -2  -5-49.1042 43.7661   2
  21   2  -4 454.464 111.382   2
  21   2  -4 409.204 79.0478   1
  21  -2  -4 430.721 87.3075   2
  21  -2  -3 29.6698 27.9505   2
  21   2  -3 19.4555 21.2645   1
  21  -2  -2 36.5322 26.8903   2
  21   2  -2-1.48402 22.8581   1
  21   2  -2-44.0521 51.8979   2
  21  -2  -1 49.7392 27.0871   2
  21   2  -1 111.724 37.4334   1
  21   2  -1 100.555 64.4894   2
  21  -2   0 4.89827 22.1895   2
  21   2   0-4.08369 33.3597   2
  21   2   1-14.7913 29.1227   2
  21  -2   1-37.4011 31.2731   2
  21   2   2-40.6209 31.6223   2
  21   2   3-7.61435 35.0716   2
  21   2   4 225.729 78.2699   2
  21   2   4 144.388 53.0594   3
  21   2   5 122.593 56.1335   2
  21   2   5 124.165 49.6119   3
  21   2   6 238.844 78.7746   2
  21  -2   6 226.225 81.9471   3
  21   2   6 157.853 59.8861   3
  21  -2   7 73.8961 59.5406   3
  21   2   7 15.7445 32.2606   3
  21  -2   8 81.3271 57.4974   3
  21   2   8 2.97313 26.7117   3
  21  -2   9-49.3437 46.9382   3
  21  -2  10 23.7289 38.9422   3
  21  -2  11 7.61372 28.9072   3
  21  -2  12 35.2853 49.4790   3
  21  -2  13-50.8783 49.4201   3
  21  -2  14-76.9686 57.2725   3
  21   3 -14-3.99486 48.9259   2
  21   3 -13-40.8960 43.1537   2
  21   3 -12 13.0128 27.8139   2
  21   3 -11 79.4801 63.8044   2
  21   3 -10 63.2815 55.2860   2
  21  -3 -10 7.73250 17.1504   2
  21   3  -9-108.661 62.9593   2
  21  -3  -9 16.5859 24.4701   2
  21   3  -8 31.9503 32.9575   2
  21  -3  -8-16.1895 29.6226   2
  21   3  -7 17.8960 45.8814   2
  21  -3  -7 49.2933 36.0185   2
  21   3  -6 253.552 66.3751   1
  21   3  -6 133.299 68.6501   2
  21  -3  -6 134.954 49.6556   2
  21  -3  -5 141.204 49.5349   2
  21   3  -5 85.7064 63.6940   2
  21   3  -5 189.811 58.6416   1
  21  -3  -4 35.7305 26.3903   2
  21   3  -4 27.3307 30.0724   2
  21   3  -4 70.0457 37.6809   1
  21  -3  -3 77.9152 37.3453   2
  21   3  -3 97.8202 44.2739   1
  21   3  -3 164.756 73.3714   2
  21  -3  -2-11.2280 32.3759   2
  21   3  -2-40.1359 39.6162   2
  21   3  -2-1.31611 24.5591   1
  21  -3  -1 21.5936 24.6062   2
  21   3  -1-8.63897 27.3433   1
  21   3  -1 35.0451 40.5222   2
  21   3   0 111.246 46.3003   1
  21   3   0-45.5769 36.8323   2
  21   3   1 25.1700 30.4551   2
  21   3   1 18.5296 27.9470   1
  21   3   2-17.5163 26.3636   2
  21   3   3 256.757 86.8200   2
  21   3   3 91.2539 40.3656   3
  21   3   4 20.6193 27.8294   2
  21   3   5-17.9765 49.7953   2
  21   3   6 351.382 102.179   2
  21   3   7-24.3031 50.2800   2
  21  -3   7-98.4549 60.8576   3
  21  -3   8 86.3803 66.3307   3
  21  -3   9 93.5493 81.0748   3
  21  -3  10-31.8710 31.9597   3
  21  -3  11 10.9028 50.4707   3
  21  -3  12 12.8817 50.7649   3
  21   4 -12 83.8681 59.5476   2
  21   4 -11 58.4936 52.0892   2
  21   4 -10 63.9303 55.5038   2
  21   4  -9-10.6583 55.2140   2
  21   4  -8 92.3534 60.0365   2
  21   4  -7 44.6091 29.5817   2
  21   4  -6 46.0834 63.9918   2
  21   4  -6-1.56699 24.6560   1
  21   4  -5 113.739 40.9997   1
  21   4  -5 167.153 73.1597   2
  21   4  -4-0.28023 36.9606   2
  21   4  -4 61.9322 40.3109   1
  21   4  -3 145.364 56.9542   1
  21   4  -3 192.537 84.5424   2
  21   4  -2 48.5739 37.3267   2
  21   4  -2 22.3074 25.9148   1
  21   4  -1 53.3216 35.9724   1
  21   4  -1-18.2425 33.9570   2
  21   4   0 2.67000 32.0737   1
  21   4   0 31.0819 28.9062   2
  21   4   1 63.4816 58.0748   2
  21   4   1 121.780 59.2032   1
  21   4   2 85.5828 46.3441   2
  21   4   2 91.9509 51.6440   1
  21   4   3-26.1928 34.5982   2
  21   4   4-38.9503 38.4354   2
  21   4   5-0.26940 40.2320   2
  21   4   6 50.6577 47.1084   2
  21   4   7 9.25671 27.4329   2
  21  -4   7 70.7445 68.7801   3
  21  -4   8 87.5921 60.6160   3
  21  -4   9 14.4794 34.2949   3
  21  -4  10 94.1471 70.2253   3
  21   5  -9 55.8332 41.0584   2
  21   5  -8-42.2327 55.6171   2
  21   5  -7-26.1876 39.6742   2
  21   5  -7-55.0989 44.4353   1
  21   5  -6 23.9175 22.7843   1
  21   5  -6-43.1050 44.8938   2
  21   5  -5-50.1704 37.8698   1
  21   5  -5-109.723 63.7703   2
  21   5  -4-125.935 66.2830   2
  21   5  -4 30.4949 29.8422   1
  21   5  -3-129.608 54.4999   1
  21   5  -3-47.6291 42.8843   2
  21   5  -2 0.29463 42.8572   2
  21   5  -2-35.3217 38.6238   1
  21   5  -1-5.27378 37.5317   1
  21   5  -1-115.889 64.9303   2
  21   5   0 389.085 91.7399   1
  21   5   0 254.287 88.5347   2
  21   5   1-45.8337 39.2932   1
  21   5   1 48.4975 39.2377   2
  21   5   2 765.497 147.797   2
  21   5   2 953.368 152.722   1
  21   5   3-9.88710 44.2587   2
  21   5   4 342.889 105.243   2
  21   5   5 38.9311 39.7756   2
  21  -5   7-10.6199 55.7499   3
  21   6  -7-22.0712 21.3650   1
  21   6  -6 98.2831 51.9056   1
  21   6  -5-117.591 53.5671   1
  21   6  -4 21.4428 39.2102   1
  21   6  -4 63.6583 60.5474   2
  21   6  -3-1.47657 33.6815   1
  21   6  -3 59.6641 52.9547   2
  21   6  -2 67.8055 51.8565   2
  21   6  -2-77.8191 54.1386   1
  21   6  -1-12.6586 39.0519   1
  21   6  -1 14.4686 37.0534   2
  21   6   0 33.7717 29.4364   1
  21   6   0 154.483 71.5526   2
  21   6   1 11.7344 24.6186   1
  21   6   1 0.89733 44.7478   2
  21   6   2 132.093 62.1651   1
  22   0 -17-63.9936 50.1031   2
  22   0 -16 142.594 95.0674   2
  22   0 -15-119.839 65.7673   2
  22   0 -14 19.9785 41.0105   2
  22   0 -13-27.9913 38.2373   2
  22   0 -12 1.15327 39.6526   2
  22   0 -11-39.7312 39.8637   2
  22   0 -10 19.0908 39.5782   2
  22   0  -9-83.8288 52.0464   2
  22   0  -8-20.5314 32.9053   2
  22   0  -7-19.8146 39.4399   2
  22   0  -7 21.3827 31.4984   1
  22   0  -6 222.376 79.5605   2
  22   0  -6 329.711 61.5608   1
  22   0  -5 18.6270 20.9956   1
  22   0  -5 7.10135 51.7956   2
  22   0  -4-29.0507 27.6072   1
  22   0  -4-66.6713 53.3135   2
  22   0  -3-40.4544 26.8279   1
  22   0  -3 5.45838 31.7022   2
  22   0  -2 11.2657 16.6708   1
  22   0  -2-41.0812 48.1082   2
  22   0  -1 5.97936 29.2213   2
  22   0   0 38.2409 28.5794   2
  22   0   1-62.2895 43.3177   2
  22   0   2 43.8470 45.5054   2
  22   0   3 54.4076 49.4797   2
  22   0   4-25.6468 33.3993   2
  22   0   5 4.30893 31.5665   3
  22   0   6-0.22980 25.7633   3
  22   0   7 16.7774 28.3449   3
  22   0   8 8.66776 28.5035   3
  22   0   9-189.238 73.0962   3
  22   0  10-210.350 76.9678   3
  22   0  11 46.2463 41.2333   3
  22   0  12 203.624 80.7125   3
  22   0  13-46.8597 44.0308   3
  22  -1 -17 12.0046 28.4733   2
  22   1 -16 44.4823 51.4175   2
  22  -1 -16-17.3228 40.2761   2
  22   1 -15-0.32779 45.9470   2
  22  -1 -15 86.8022 57.4609   2
  22   1 -14 154.110 82.5312   2
  22  -1 -14-48.4666 42.7528   2
  22   1 -13 44.6820 52.9240   2
  22  -1 -13 235.096 87.7973   2
  22   1 -12 11.5490 36.7540   2
  22  -1 -12 32.1884 28.2418   2
  22   1 -11-68.2240 52.7723   2
  22  -1 -11 2.81631 22.4235   2
  22   1 -10 47.0602 40.7244   2
  22  -1 -10-77.1517 49.2281   2
  22   1  -9 173.513 76.5733   2
  22  -1  -9 221.618 75.0929   2
  22   1  -8 431.862 113.708   2
  22  -1  -8 370.392 97.6120   2
  22   1  -7 1223.39 131.827   1
  22   1  -7 1129.28 174.386   2
  22  -1  -7 853.478 140.712   2
  22   1  -6 28.5263 24.1281   1
  22   1  -6 0.25771 27.7498   2
  22  -1  -6 33.2094 32.1435   2
  22   1  -5-10.9921 27.5907   1
  22   1  -5 53.3168 44.6063   2
  22  -1  -5 55.9485 38.0941   2
  22   1  -4 322.733 68.2061   1
  22   1  -4 312.774 91.6585   2
  22  -1  -4 265.628 76.6238   2
  22  -1  -3 1.63816 28.7471   2
  22   1  -3 67.2479 37.8518   1
  22   1  -3 50.5153 24.3217   2
  22  -1  -2 17.9435 27.4316   2
  22   1  -2-9.67274 19.3884   1
  22   1  -2-20.6666 33.2619   2
  22   1  -1-24.7423 33.8184   2
  22  -1  -1-67.4113 42.1974   2
  22   1  -1-7.37501 25.1273   1
  22   1   0-160.309 66.5155   2
  22  -1   0 28.6492 27.3227   2
  22   1   1-14.4053 30.7122   2
  22  -1   1-7.76519 35.9523   2
  22   1   2 48.4593 49.7214   2
  22  -1   2-78.2535 50.3315   2
  22   1   3 15.2370 31.0869   2
  22   1   4 53.5134 34.3053   2
  22   1   4-116.152 52.4595   3
  22   1   5 35.2395 42.3326   2
  22   1   5-48.0906 38.5009   3
  22  -1   6-34.9047 38.7954   3
  22   1   6-12.0136 36.9178   3
  22  -1   7-13.9437 31.8395   3
  22   1   7-21.5767 41.3317   3
  22  -1   8 121.112 68.3228   3
  22   1   8 83.1091 52.1821   3
  22  -1   9-194.380 76.6684   3
  22   1   9 47.6818 39.4935   3
  22  -1  10 83.7680 70.7500   3
  22   1  10 40.9268 41.4033   3
  22  -1  11 69.3574 47.6573   3
  22  -1  12 17.7523 35.8172   3
  22  -1  13 20.8375 37.2944   3
  22  -1  14 40.9751 52.9747   3
  22   2 -14 23.9400 48.5397   2
  22   2 -13-58.2288 50.8359   2
  22   2 -12-134.050 69.8140   2
  22  -2 -12-33.6064 44.0667   2
  22   2 -11 78.6836 46.2111   2
  22  -2 -11 2.73608 45.6044   2
  22   2 -10-36.0670 41.7929   2
  22  -2 -10-17.3630 25.5620   2
  22   2  -9 176.377 79.0038   2
  22  -2  -9 32.9502 21.2659   2
  22   2  -8 48.9834 25.8490   2
  22  -2  -8-30.4755 31.9853   2
  22   2  -7 94.4334 43.8950   1
  22   2  -7 0.56389 27.8834   2
  22  -2  -7 118.616 57.1927   2
  22   2  -6-21.7690 32.2151   2
  22   2  -6-2.81174 25.8639   1
  22  -2  -6 19.6023 35.9035   2
  22   2  -5-0.26707 44.8063   2
  22   2  -5 59.3322 26.7525   1
  22  -2  -5 0.18892 22.0022   2
  22  -2  -4 14.6828 28.1488   2
  22   2  -4-1.94224 19.4569   1
  22   2  -4 0.26756 32.4356   2
  22  -2  -3 48.7273 44.1998   2
  22   2  -3 107.788 55.5085   2
  22   2  -3 43.0260 25.6284   1
  22  -2  -2 75.3416 39.4684   2
  22   2  -2 142.577 49.5016   1
  22   2  -2 90.8150 55.8126   2
  22   2  -1-4.56847 28.3582   1
  22  -2  -1 63.5464 34.4328   2
  22   2  -1 61.4108 53.2093   2
  22   2   0 34.7557 49.0101   2
  22  -2   0 17.8242 29.8365   2
  22   2   0 0.16988 22.8830   1
  22   2   1 6.31031 34.6670   2
  22  -2   1 0.55356 28.6565   2
  22   2   2 66.7685 53.9722   2
  22   2   3 92.8940 55.2152   2
  22   2   4 58.8424 44.2056   2
  22   2   4 46.8843 38.1876   3
  22   2   5 171.299 71.4895   2
  22   2   5 50.0274 21.5292   3
  22  -2   6 80.0219 53.4094   3
  22   2   6 19.9473 34.7136   2
  22  -2   7 24.3530 27.4289   3
  22  -2   8 22.2266 35.5180   3
  22  -2   9 77.1212 59.6713   3
  22  -2  10 92.4884 42.3853   3
  22  -2  11 17.0225 55.7243   3
  22  -2  12 5.32181 33.2877   3
  22  -2  13 24.6642 46.7691   3
  22   3 -12 98.9226 64.1817   2
  22   3 -11-113.672 67.2789   2
  22   3 -10-93.8448 61.9024   2
  22   3  -9-43.4521 46.0133   2
  22   3  -8 69.1395 56.3558   2
  22   3  -7-16.2500 29.5102   1
  22   3  -7-55.2327 49.8582   2
  22  -3  -6 92.7605 40.1732   2
  22   3  -6 182.589 83.3459   2
  22   3  -6 136.267 51.2989   1
  22  -3  -5-16.9424 26.4115   2
  22   3  -5 27.7048 30.2716   2
  22   3  -5 31.8142 34.1784   1
  22  -3  -4-13.0467 18.6595   2
  22   3  -4 4.41646 20.5128   1
  22   3  -4-39.5026 41.1969   2
  22   3  -3 44.3029 35.2178   1
  22  -3  -3 159.430 55.6230   2
  22   3  -3 85.0194 53.8370   2
  22  -3  -2-27.9215 40.4868   2
  22   3  -2 43.4069 39.6147   1
  22   3  -2 11.3703 46.1797   2
  22   3  -1-1.26044 24.6904   1
  22  -3  -1-24.4122 32.6538   2
  22   3  -1-82.4549 52.1706   2
  22   3   0 4.63915 23.2103   1
  22   3   0-81.9824 53.4572   2
  22   3   1 92.0679 57.8677   2
  22   3   1-45.1078 37.0378   1
  22   3   2 81.9769 52.2090   2
  22   3   3 56.0160 43.5514   2
  22   3   4 6.13243 29.8994   2
  22   3   5 18.2825 31.4076   2
  22   3   6 5.66612 28.2725   2
  22  -3   6 11.4730 49.5069   3
  22  -3   7 7.73388 29.7578   3
  22  -3   8 135.153 64.0140   3
  22  -3   9 201.236 93.1750   3
  22  -3  10 209.390 91.9340   3
  22  -3  11 0.32330 54.3971   3
  22   4 -10-144.181 76.7363   2
  22   4  -9 57.3675 64.3054   2
  22   4  -8 36.9790 35.0084   2
  22   4  -7 18.1051 31.0164   2
  22   4  -7-7.19705 32.8979   1
  22   4  -6-13.2277 31.2868   2
  22   4  -6 12.3584 27.8142   1
  22   4  -5 45.6222 58.4207   2
  22   4  -5 68.7969 43.8520   1
  22   4  -4 213.338 71.8936   1
  22   4  -4 158.377 76.9406   2
  22   4  -3 64.2198 38.2969   1
  22   4  -3 77.5308 51.7448   2
  22   4  -2 172.561 66.1563   1
  22   4  -2 106.522 61.8400   2
  22   4  -1 1.37984 27.1187   1
  22   4  -1-21.3960 40.3366   2
  22   4   0 23.4438 34.0104   1
  22   4   0-38.4750 43.6727   2
  22   4   1 229.753 80.1246   2
  22   4   1 108.552 56.9017   1
  22   4   2 41.4567 39.6096   2
  22   4   3 52.4770 34.0129   2
  22   4   4-81.2624 54.4704   2
  22   4   5-35.5734 44.3396   2
  22  -4   7 1.60188 48.6973   3
  22  -4   8 204.520 92.1154   3
  22   5  -8 18.2531 33.4323   1
  22   5  -7 1.41456 28.5601   1
  22   5  -6 10.9795 22.8182   1
  22   5  -5 37.2772 34.1664   2
  22   5  -5-13.2482 38.1675   1
  22   5  -4-27.1300 32.1751   1
  22   5  -4 40.8437 51.7226   2
  22   5  -3 33.6335 38.5810   1
  22   5  -3 11.1825 52.5037   2
  22   5  -2 17.0000 35.2535   2
  22   5  -2 17.0788 25.1997   1
  22   5  -1 20.6195 26.8106   1
  22   5  -1 40.4969 38.4727   2
  22   5   0-32.3776 39.6378   1
  22   5   0 95.4243 60.0868   2
  22   5   1-160.646 75.0673   2
  22   5   1 44.8282 47.0242   1
  22   6  -6 94.1742 45.1635   1
  22   6  -5-37.6480 35.2172   1
  22   6  -4-28.1142 39.8870   1
  22   6  -3-6.27615 25.9776   1
  22   6  -2-14.3989 24.7419   1
  22   6  -1 32.5868 45.0598   1
  22   6   0 95.5136 52.1429   1
  22   6   1 45.2684 40.3152   1
  22   6   2 4.88291 25.5077   1
  23   0 -16-175.327 79.8227   2
  23   0 -15 90.9252 72.7599   2
  23   0 -14-107.908 62.2508   2
  23   0 -13 37.0607 63.1126   2
  23   0 -12-90.7899 58.3587   2
  23   0 -11-48.6652 60.8580   2
  23   0 -10 112.789 68.9809   2
  23   0  -9 30.7203 34.8449   2
  23   0  -8 8.65502 25.2335   2
  23   0  -7-50.3541 42.6125   2
  23   0  -6-28.2653 38.5412   2
  23   0  -5-9.20204 29.3873   2
  23   0  -4-16.7810 25.9353   2
  23   0  -3-31.7311 40.6503   2
  23   0  -2-46.3084 41.7835   2
  23   0  -1-0.23297 35.4800   2
  23   0   0 7.41187 25.2742   2
  23   0   1 84.1027 52.4516   2
  23   0   2-22.6845 41.6344   2
  23   0   3 87.7695 54.9356   2
  23   0   5 58.4666 43.2427   3
  23   0   6 42.0936 27.5908   3
  23   0   7 26.8561 31.4126   3
  23   0   8-28.6902 37.6749   3
  23   0   9 44.7900 38.3514   3
  23   0  10 62.7838 48.6903   3
  23   0  11 45.3442 42.2113   3
  23  -1 -15 20.8405 29.6925   2
  23   1 -14 22.3162 24.7041   2
  23  -1 -14 114.592 66.1111   2
  23   1 -13-83.8345 58.7113   2
  23  -1 -13 131.830 71.1333   2
  23   1 -12-22.1605 35.5992   2
  23  -1 -12 62.0267 57.1089   2
  23   1 -11-68.1447 53.0227   2
  23  -1 -11 13.2171 25.3032   2
  23   1 -10 55.8350 40.5376   2
  23  -1 -10 50.9947 34.5308   2
  23   1  -9-47.0451 26.4270   2
  23  -1  -9 61.0186 52.5264   2
  23   1  -8 96.3645 50.3904   2
  23  -1  -8-48.5314 39.4708   2
  23   1  -8 31.3285 29.1325   1
  23   1  -7 292.261 67.1626   1
  23   1  -7 237.617 86.3049   2
  23  -1  -7 231.833 80.9828   2
  23   1  -6-97.9899 57.8301   2
  23   1  -6-11.1250 28.3645   1
  23  -1  -6 41.9708 49.1924   2
  23   1  -5 129.363 42.9736   1
  23   1  -5 177.306 77.8739   2
  23  -1  -5 190.449 70.3588   2
  23   1  -4 110.257 45.2647   1
  23   1  -4 153.114 71.9450   2
  23  -1  -4 210.481 69.4611   2
  23  -1  -3 33.5914 43.3199   2
  23   1  -3-0.44544 24.2904   1
  23   1  -3-39.4229 36.7761   2
  23   1  -2 6.98312 31.4878   1
  23  -1  -2-56.5578 51.4689   2
  23   1  -2 46.5865 36.8189   2
  23   1  -1 129.708 63.1481   2
  23  -1  -1 81.5024 44.7130   2
  23   1   0 15.9969 28.0309   2
  23  -1   0-60.1831 40.8986   2
  23   1   1 6.21895 32.6596   2
  23  -1   1-7.49088 21.8472   2
  23   1   2 61.0773 49.5146   2
  23  -1   2 34.4793 25.6903   2
  23   1   3 6.78656 41.8849   2
  23   1   4-36.0352 38.3777   2
  23   1   4 50.5918 41.0121   3
  23  -1   5-26.4487 23.7381   3
  23   1   5-28.3829 22.4942   3
  23  -1   6 0.52088 28.7508   3
  23   1   6-39.9966 45.5325   3
  23  -1   7 6.09277 30.4332   3
  23   1   7 5.81404 20.9143   3
  23  -1   8 78.9218 59.2690   3
  23  -1   9 35.3561 41.8349   3
  23  -1  10-0.28609 25.7695   3
  23  -1  11-1.75971 24.5325   3
  23  -1  12 41.1455 40.9125   3
  23   2 -12 72.4160 64.9555   2
  23   2 -11-39.4511 44.2648   2
  23   2 -10 4.10150 30.9006   2
  23  -2 -10-70.4888 43.9646   2
  23   2  -9-0.30774 24.0434   2
  23  -2  -9-22.5966 35.8514   2
  23   2  -8 10.5297 22.7860   1
  23   2  -8 42.7508 31.6111   2
  23  -2  -8 19.0680 42.6505   2
  23   2  -7 0.88201 40.0543   2
  23   2  -7 81.7407 40.9895   1
  23  -2  -7 10.0205 22.4540   2
  23   2  -6-35.0329 40.2767   2
  23   2  -6 27.7779 31.1537   1
  23  -2  -6 1.81244 19.5111   2
  23  -2  -5 26.4201 29.8821   2
  23   2  -5 37.2044 36.4879   1
  23   2  -5-26.7089 38.2692   2
  23  -2  -4-49.0393 37.9790   2
  23   2  -4-102.283 60.0310   2
  23   2  -4 23.7225 27.0583   1
  23  -2  -3 75.8464 41.0463   2
  23   2  -3 108.385 55.0602   1
  23   2  -3 63.1153 47.4072   2
  23  -2  -2 7.05632 30.3988   2
  23   2  -2 27.2233 21.1127   1
  23   2  -1-39.7149 32.1110   1
  23  -2  -1 10.8664 32.6767   2
  23   2  -1-21.6619 44.5739   2
  23   2   0 0.79817 27.0502   2
  23  -2   0 23.8835 25.1242   2
  23   2   1-56.0829 46.8714   2
  23   2   2 70.4691 42.8439   2
  23   2   3 8.47089 36.2886   2
  23   2   4 63.7160 64.3849   2
  23   2   5-94.8405 53.9404   2
  23  -2   6 0.28448 29.3218   3
  23  -2   7-144.379 70.4633   3
  23  -2   8 6.11357 37.5975   3
  23  -2   9 32.5092 52.4275   3
  23  -2  10-84.7501 58.3441   3
  23  -2  11-96.6432 61.8409   3
  23   3 -10 23.5191 38.7112   2
  23   3  -9 15.5072 34.3612   2
  23   3  -8 148.344 74.3597   2
  23   3  -8 201.166 66.9016   1
  23   3  -7 61.5903 64.8373   2
  23   3  -7-72.3286 41.0561   1
  23   3  -6 23.4378 29.0818   1
  23   3  -6 16.3690 47.2669   2
  23   3  -5 37.0233 33.2392   1
  23   3  -5-50.4341 47.0014   2
  23   3  -4 45.7605 31.0954   1
  23   3  -4 85.7822 61.1442   2
  23   3  -3-16.8051 33.7006   2
  23   3  -3 45.0211 39.0240   1
  23  -3  -2 38.5540 30.4388   2
  23   3  -2 75.5848 45.8218   1
  23   3  -2 33.9348 49.0210   2
  23   3  -1-20.4233 33.0547   1
  23   3  -1-107.593 62.1160   2
  23   3   0 54.3317 50.0341   2
  23   3   0 48.9708 44.6521   1
  23   3   1-50.4766 46.6853   2
  23   3   2-20.2205 35.3527   2
  23   3   3-86.7478 54.3220   2
  23   3   4 12.1454 33.3771   2
  23  -3   6-21.2551 36.3896   3
  23  -3   7-0.30863 57.2677   3
  23  -3   8-1.25574 32.5481   3
  23  -3   9 145.964 76.6170   3
  23   4  -8 21.0575 31.4513   1
  23   4  -7-5.10424 27.0693   1
  23   4  -6 25.1045 26.4305   1
  23   4  -6 91.1151 65.8585   2
  23   4  -5 33.6161 42.5249   1
  23   4  -5 57.3955 47.5490   2
  23   4  -4-27.1108 26.6685   1
  23   4  -4-81.9595 57.9990   2
  23   4  -3 477.349 126.741   2
  23   4  -3 126.252 61.9153   1
  23   4  -2 116.463 63.4055   1
  23   4  -2 26.4298 40.8652   2
  23   4  -1 46.4613 47.8244   1
  23   4  -1-118.413 65.1187   2
  23   4   0 55.8637 57.8655   2
  23   4   0 72.2105 44.4277   1
  23   4   1 0.29684 34.3953   2
  23   5  -9-18.1507 40.2833   1
  23   5  -8-24.6713 29.7084   1
  23   5  -7 74.8036 47.5546   1
  23   5  -6-95.5053 47.6253   1
  23   5  -5-64.3287 40.8622   1
  23   5  -4 32.3482 34.7929   1
  23   5  -3 37.0929 42.1413   1
  23   5  -2-18.5805 28.0392   1
  23   5  -1 0.45381 33.6145   1
  23   5   0-77.6880 49.3857   1
  23   5   1-61.7608 45.4879   1
  24   0 -14-46.6725 44.3798   2
  24   0 -13-2.54314 34.0205   2
  24   0 -12 20.9298 22.6515   2
  24   0 -11-140.447 68.6083   2
  24   0 -10-79.0541 57.8871   2
  24   0  -9-58.6021 45.7498   2
  24   0  -8-106.797 58.1336   2
  24   0  -7-73.2852 52.1326   2
  24   0  -6-10.8683 39.4215   2
  24   0  -5-35.4558 36.8574   2
  24   0  -4 393.652 104.568   2
  24   0  -3-38.8815 37.9983   2
  24   0  -2 108.948 52.3034   2
  24   0  -1 45.0372 43.9233   2
  24   0   0 16.6758 39.4587   2
  24   0   1 53.3854 44.4767   2
  24   0   2-29.3503 36.8166   2
  24   0   3-108.403 55.3742   2
  24   0   5-3.22680 38.2706   3
  24   0   6-102.993 56.1840   3
  24   0   7-27.7797 42.8689   3
  24   0   8-23.4042 33.8841   3
  24   1 -12-90.6217 60.4359   2
  24  -1 -12 87.2834 70.6968   2
  24   1 -11 44.3628 62.0866   2
  24  -1 -11-69.0465 48.1634   2
  24   1 -10 31.9626 52.7475   2
  24  -1 -10-66.6154 46.8140   2
  24   1  -9-0.30354 43.6168   2
  24  -1  -9 0.76692 32.1161   2
  24   1  -8 33.8349 43.5985   2
  24  -1  -8 116.290 67.5233   2
  24   1  -7 260.595 96.7834   2
  24  -1  -7 237.883 71.1534   2
  24   1  -6-71.2145 50.4857   2
  24  -1  -6 21.0783 45.4416   2
  24   1  -5-168.237 73.3095   2
  24  -1  -5 54.3274 32.4522   2
  24  -1  -4 6.43298 38.8581   2
  24   1  -4 20.1098 38.5876   2
  24  -1  -3 24.0585 27.4363   2
  24   1  -3-55.3118 46.3876   2
  24   1  -2-49.0522 43.2742   2
  24  -1  -2 99.7843 53.1540   2
  24   1  -1 183.190 81.7931   2
  24  -1  -1 42.6376 39.4384   2
  24   1   0 27.8432 47.9592   2
  24  -1   0 15.3461 42.7585   2
  24   1   1-139.370 64.7189   2
  24  -1   1 23.3109 22.5208   2
  24   1   2 4.20237 29.4441   2
  24  -1   2 14.3965 18.8256   2
  24   1   3-134.869 64.6209   2
  24   1   4-103.617 57.3789   2
  24   1   4-44.0633 37.9162   3
  24  -1   5 49.4793 43.3631   3
  24  -1   6-103.838 58.6456   3
  24  -1   7 29.7247 40.7744   3
  24  -1   8 101.398 73.6348   3
  24  -1   9 4.37341 27.6463   3
  24  -1  10-95.1123 59.0222   3
  24   2 -10-111.808 65.9323   2
  24   2  -9 15.7872 24.2006   1
  24   2  -9 9.61503 37.4073   2
  24   2  -8 2.50557 31.6641   2
  24   2  -8 24.3653 25.7022   1
  24   2  -7 43.7072 39.2623   2
  24   2  -7 39.2278 32.7281   1
  24   2  -6-16.5789 25.0278   1
  24   2  -6-15.1142 33.4515   2
  24  -2  -6-25.9076 33.9687   2
  24   2  -5 54.0967 42.1664   1
  24  -2  -5 58.9227 42.9393   2
  24   2  -5 22.1620 48.6660   2
  24  -2  -4 32.1750 30.8343   2
  24   2  -4-13.9357 22.0587   1
  24  -2  -3-23.2346 28.7995   2
  24   2  -3-32.0563 32.9331   1
  24   2  -3-83.6401 55.4351   2
  24   2  -2-15.2996 25.6436   1
  24  -2  -2 76.8650 48.1214   2
  24   2  -2 96.5071 60.2302   2
  24   2  -1 5.08329 23.6407   2
  24  -2  -1 3.23475 19.4760   2
  24   2  -1 23.1048 35.4018   1
  24   2   0-61.7284 45.6617   2
  24  -2   0 14.5558 20.0707   2
  24   2   1-125.517 63.4626   2
  24   2   2-39.2159 33.6999   2
  24   2   3 123.925 70.0299   2
  24   2   4 11.4508 28.7627   2
  24  -2   6-45.3566 45.3900   3
  24  -2   7 59.0412 63.7885   3
  24  -2   8 17.9648 25.6693   3
  24  -2   9 72.6511 68.6429   3
  24   3  -9-9.56390 20.6405   1
  24   3  -8 30.5640 33.3064   1
  24   3  -7-0.35574 26.8882   1
  24   3  -6 58.9002 38.2410   1
  24   3  -5 1.47051 22.8284   1
  24   3  -5-82.8016 58.8685   2
  24   3  -4 98.3500 68.0458   2
  24   3  -4 70.2776 36.1738   1
  24   3  -3 94.1945 44.8194   1
  24   3  -3 108.977 71.8419   2
  24   3  -2-36.7285 32.8021   1
  24   3  -2-69.3259 53.2144   2
  24   3  -1 10.1151 28.1015   2
  24   3  -1 22.7607 25.9654   1
  24   3   0 138.055 61.3722   2
  24  -3   6 23.4558 46.8611   3
  24   4  -9 54.4266 44.7453   1
  24   4  -8 66.1925 39.8635   1
  24   4  -7 25.2436 28.5264   1
  24   4  -6-87.6113 46.4112   1
  24   4  -5-10.4727 22.3790   1
  24   4  -4 20.9914 21.1873   1
  24   4  -3-55.1802 40.1534   1
  24   4  -2-27.1912 36.9646   1
  24   4  -1 47.5471 38.8019   1
  24   4   0 21.3204 26.9642   1
  24   5  -6-16.6200 41.1385   1
  24   5  -5-7.45715 23.3051   1
  24   5  -4-14.1254 40.8597   1
  24   5  -3-54.6020 40.3965   1
  24   5  -2 3.75391 27.6137   1
  24   5  -1 6.94293 26.1873   1
  24   5   0 27.7508 45.8372   1
  25   0 -11-31.8956 37.8054   2
  25   0 -10-70.8569 51.4507   2
  25   0  -9 32.3470 38.3215   2
  25   0  -8-201.440 79.8095   2
  25   0  -7-76.9902 51.7970   2
  25   0  -6-161.611 70.8459   2
  25   0  -5-126.315 62.0011   2
  25   0  -4 19.4557 41.3900   2
  25   0  -3 113.300 62.7606   2
  25   0  -2-91.7456 54.3501   2
  25   0  -1 271.807 87.6118   2
  25   0   0 5.35733 25.8442   2
  25   0   1 217.074 81.9028   2
  25   0   2 27.3315 37.2139   2
  25   0   4 11.1056 32.0030   3
  25   0   5 40.4260 35.1463   3
  25   1  -9-63.4109 49.8390   2
  25  -1  -9-14.4746 40.5946   2
  25   1  -8-52.1035 47.1583   2
  25  -1  -8 10.7306 20.8679   2
  25   1  -7-144.214 70.5972   2
  25  -1  -7 4.32662 42.8164   2
  25   1  -6 21.8151 31.5981   2
  25  -1  -6-86.6520 49.5062   2
  25  -1  -5 35.9880 39.6470   2
  25   1  -5-92.9483 55.8729   2
  25  -1  -4-20.8889 30.4201   2
  25   1  -4 49.7393 35.4258   2
  25   1  -3 118.830 62.2951   2
  25  -1  -3 81.3081 48.8180   2
  25   1  -2-139.733 66.8074   2
  25  -1  -2 13.5350 27.0340   2
  25   1  -1 88.1312 60.5403   2
  25  -1  -1-2.11747 20.1544   2
  25   1   0 150.283 71.2821   2
  25  -1   0 39.4535 37.1669   2
  25   1   1 6.30649 25.1956   2
  25  -1   1-16.1752 24.9968   2
  25   1   2-45.9419 39.0427   2
  25   1   3 36.6057 45.8946   2
  25  -1   5 111.805 74.3114   3
  25  -1   6 13.3427 36.2999   3
  25  -1   7-92.3645 55.6599   3
  25  -1   8 7.65487 40.8515   3
  25   2  -5-41.6981 44.1382   2
  25   2  -4-161.154 74.7575   2
  25   2  -3-177.935 77.4920   2
  25   2  -2 34.5813 44.2811   2
  25  -2  -2-34.4279 31.6738   2
  25  -2  -1-20.8473 27.4913   2
  25  -2   5 41.8778 35.8319   3
  25  -2   6 97.7438 73.4557   3
  25  -2   7-46.4037 48.0288   3
  25   3  -9 65.0334 56.8622   1
  25   3  -8 149.042 63.0798   1
  25   3  -7 11.2763 40.7690   1
  25   3  -6 98.7005 48.7494   1
  25   3  -5-16.2363 29.9030   1
  25   3  -4 39.1365 40.3642   1
  25   3  -3 53.0689 43.3765   1
  25   3  -2 18.2561 35.7066   1
  25   3  -1-32.3174 32.4274   1
  25   4  -8-67.8954 41.4103   1
  25   4  -7-208.157 69.0688   1
  25   4  -6 32.0424 41.2245   1
  25   4  -5-13.7433 26.0302   1
  25   4  -4 90.2967 52.9282   1
  25   4  -3 2.90661 19.1790   1
  25   4  -2-76.2849 46.3181   1
  25   4  -1 8.23478 22.8955   1
  26   0  -8 149.943 77.2095   2
  26   0  -7 33.7465 41.3876   2
  26   0  -6 50.5547 50.9520   2
  26   0  -5 2.50186 27.0383   2
  26   0  -4-49.6726 42.2434   2
  26   0  -3 11.4472 36.8179   2
  26   0  -2 2.15498 25.4653   2
  26   0  -1 70.5473 57.9341   2
  26   0   0-116.541 60.9092   2
  26   0   1 17.3562 43.7019   2
  26  -1  -6 73.2826 52.5261   2
  26  -1  -5 16.2021 24.5785   2
  26  -1  -4 50.8409 52.0265   2
  26  -1  -3 97.2822 62.4338   2
  26  -1  -2-150.094 64.0492   2
  26  -1  -1 44.4528 43.0213   2
  26  -1   0-109.489 56.0739   2
  26  -1   4-145.393 69.3769   3
  26  -1   5 19.0620 28.8409   3
   0   0   0    0.00    0.00   0
TITL bmk1722d in P2(1)/n
REM P2(1)/n (#14 in standard setting)
CELL 0.71073  19.266631   9.776878  20.326520  90.0000  94.4231  90.0000
ZERR    8.00   0.000995   0.000401   0.001233   0.0000   0.0053   0.0000
LATT  1
SYMM -x+1/2, y+1/2,-z+1/2
SFAC C H N O S
UNIT 184.00 120.00 24.00 8.00 8.00
TREF
HKLF 4
END
;
_shelx_hkl_checksum              69588
_shelx_res_file
;
TITL bmk1722d in P2(1)/n
    shelx.res
    created by SHELXL-2018/1 at 16:32:38 on 22-Jan-2018
CELL  0.71073  19.2666   9.7769  20.3265   90.000   94.423   90.000
ZERR     8.00   0.0010   0.0004   0.0012    0.000    0.005    0.000
LATT   1
SYMM  1/2 - X, 1/2 + Y, 1/2 - Z
SFAC  C    H    N    O    S
UNIT  184  120  24   8    8
MERG   2
exyz c10 c10a
eadp c10 c10a
EADP C11 C11A
EADP C12 C12A
EADP C13 C13A
mpla  c1 > c6
mpla   n1 n2  c7 c8 c9
mpla   s1 c10 c11 c12 c13 s1a C10a c11a c12a c13a
mpla   n1 n2  c7 c8 c9
mpla   c18 > c23
mpla   c24 > c29
mpla   n4 n5  c30 c31 c32
mpla   s2 C33 c34 c35 c36
mpla   n4 n5  c30 c31 c32
mpla   c41 > c46
eqiv $1  -x+1/2, y+1/2, -z+1/2
eqiv $2  -x+1/2, y+1/2, -z+1/2
htab c34 o2_$1
htab c46 o2_$2
FMAP   2
PLAN   20
SIZE     0.056   0.151   0.278
ACTA
BOND   $H
L.S.  14
TEMP    23.00
WGHT    0.063700    0.386100
FVAR       1.63626   0.76824
C1    1   -0.010045   -0.097849    0.146698    11.00000    0.04426    0.04602 =
         0.04561   -0.00340    0.00161    0.00441
C2    1   -0.009431   -0.235589    0.161905    11.00000    0.06797    0.04941 =
         0.06758    0.00189    0.01988    0.00628
AFIX  43
H2    2   -0.031422   -0.267522    0.198053    11.00000   -1.20000
AFIX   0
C3    1    0.024257   -0.324971    0.122707    11.00000    0.08207    0.05179 =
         0.07652   -0.00002    0.01916    0.01580
AFIX  43
H3    2    0.024800   -0.417852    0.132607    11.00000   -1.20000
AFIX   0
C4    1    0.056746   -0.279492    0.069736    11.00000    0.06907    0.06902 =
         0.05694   -0.00825    0.00550    0.02207
AFIX  43
H4    2    0.079374   -0.340837    0.043723    11.00000   -1.20000
AFIX   0
C5    1    0.055884   -0.142385    0.054965    11.00000    0.06376    0.07948 =
         0.04508   -0.00002    0.00819    0.00825
AFIX  43
H5    2    0.077931   -0.111057    0.018732    11.00000   -1.20000
AFIX   0
C6    1    0.022435   -0.050385    0.093606    11.00000    0.06568    0.05312 =
         0.04616    0.00370    0.00190    0.00233
AFIX  43
H6    2    0.022041    0.042453    0.083616    11.00000   -1.20000
AFIX   0
C7    1   -0.087583    0.062638    0.276235    11.00000    0.04605    0.04271 =
         0.04578    0.00031    0.00307   -0.00040
C8    1   -0.094496    0.173077    0.230045    11.00000    0.04769    0.04215 =
         0.04196    0.00013    0.00003    0.00229
C9    1   -0.065678    0.122555    0.174690    11.00000    0.05124    0.04164 =
         0.04605    0.00515    0.00007    0.00235
AFIX  43
H9    2   -0.061972    0.169013    0.135190    11.00000   -1.20000
AFIX   0
PART    1
SAME  c33 c34 c35 c36 s2
C10   1   -0.105813    0.056102    0.344034    21.00000    0.05465    0.04148 =
         0.04887   -0.00003    0.00924    0.00057
C11   1   -0.159586    0.122473    0.371651    21.00000    0.05935    0.07521 =
         0.05398    0.02494    0.01490    0.00536
AFIX  43
H11   2   -0.191951    0.178354    0.348419    21.00000   -1.20000
AFIX   0
C12   1   -0.159098    0.093891    0.441378    21.00000    0.09371    0.06761 =
         0.06041    0.01102    0.03899    0.00974
AFIX  43
H12   2   -0.192933    0.124859    0.468043    21.00000   -1.20000
AFIX   0
C13   1   -0.103609    0.016661    0.463546    21.00000    0.09264    0.06827 =
         0.04376    0.00231    0.01419    0.00615
AFIX  43
H13   2   -0.093513   -0.007245    0.507529    21.00000   -1.20000
AFIX   0
S1    5   -0.055060   -0.030855    0.401638    21.00000    0.07140    0.05730 =
         0.05085    0.00988    0.00707    0.00867
PART    2
SAME  c33 c34 c35 c36 s2
C10A  1   -0.105813    0.056102    0.344034   -21.00000    0.05465    0.04148 =
         0.04887   -0.00003    0.00924    0.00057
C11A  1   -0.060986   -0.009247    0.392862   -21.00000    0.05935    0.07521 =
         0.05398    0.02494    0.01490    0.00536
AFIX  43
H11A  2   -0.018667   -0.049121    0.384726   -21.00000   -1.20000
AFIX   0
C12A  1   -0.088508   -0.006561    0.455931   -21.00000    0.09371    0.06761 =
         0.06041    0.01102    0.03899    0.00974
AFIX  43
H12A  2   -0.068910   -0.051770    0.493105   -21.00000   -1.20000
AFIX   0
C13A  1   -0.146207    0.069523    0.454583   -21.00000    0.09264    0.06827 =
         0.04376    0.00231    0.01419    0.00615
AFIX  43
H13A  2   -0.169438    0.091173    0.491652   -21.00000   -1.20000
AFIX   0
S1A   5   -0.171912    0.121867    0.376740   -21.00000    0.07130    0.06850 =
         0.09816   -0.00144    0.03560    0.00555
PART    0
C14   1   -0.123979    0.305080    0.242258    11.00000    0.05188    0.04250 =
         0.04632   -0.00273    0.00103    0.00170
AFIX  43
H14   2   -0.133136    0.322213    0.285753    11.00000   -1.20000
AFIX   0
C15   1   -0.140256    0.408075    0.198908    11.00000    0.05331    0.04404 =
         0.04679    0.00203    0.00328    0.00245
C16   1   -0.127085    0.397145    0.130889    11.00000    0.07277    0.05099 =
         0.06025    0.00904    0.01020    0.00881
C17   1   -0.168586    0.542017    0.218063    11.00000    0.05210    0.04183 =
         0.05975    0.00292   -0.00350    0.00006
C18   1   -0.200711    0.556955    0.281482    11.00000    0.05588    0.04113 =
         0.05584    0.00146   -0.00291    0.00893
C19   1   -0.188877    0.677641    0.316871    11.00000    0.07411    0.04746 =
         0.06658   -0.00471   -0.00481    0.00615
AFIX  43
H19   2   -0.160196    0.744603    0.301042    11.00000   -1.20000
AFIX   0
C20   1   -0.219042    0.698510    0.374647    11.00000    0.09655    0.06247 =
         0.07199   -0.01483   -0.00904    0.01199
AFIX  43
H20   2   -0.210875    0.779466    0.397992    11.00000   -1.20000
AFIX   0
C21   1   -0.261725    0.599380    0.398478    11.00000    0.08990    0.09114 =
         0.05462   -0.01179    0.00177    0.02682
AFIX  43
H21   2   -0.281367    0.612784    0.438361    11.00000   -1.20000
AFIX   0
C22   1   -0.275202    0.480561    0.363126    11.00000    0.06687    0.06929 =
         0.06820    0.00385    0.00550    0.01110
AFIX  43
H22   2   -0.304895    0.415018    0.378622    11.00000   -1.20000
AFIX   0
C23   1   -0.244820    0.459049    0.305120    11.00000    0.05607    0.05105 =
         0.05746   -0.00371    0.00256    0.00694
AFIX  43
H23   2   -0.253778    0.378644    0.281531    11.00000   -1.20000
AFIX   0
C24   1    0.034229    0.388543    0.317779    11.00000    0.04743    0.04574 =
         0.05568   -0.00556    0.00075    0.00154
C25   1    0.031569    0.526662    0.303512    11.00000    0.07451    0.04659 =
         0.08204    0.00031    0.01818    0.00896
AFIX  43
H25   2    0.051478    0.560383    0.266545    11.00000   -1.20000
AFIX   0
C26   1   -0.000724    0.613505    0.344414    11.00000    0.09666    0.05448 =
         0.10449   -0.00684    0.02666    0.01793
AFIX  43
H26   2   -0.002661    0.706520    0.334874    11.00000   -1.20000
AFIX   0
C27   1   -0.030214    0.565428    0.399166    11.00000    0.08360    0.07294 =
         0.08741   -0.02241    0.01368    0.01847
AFIX  43
H27   2   -0.052164    0.625314    0.426430    11.00000   -1.20000
AFIX   0
C28   1   -0.027069    0.427098    0.413552    11.00000    0.07610    0.08086 =
         0.06482   -0.01171    0.01331    0.00255
AFIX  43
H28   2   -0.046752    0.393605    0.450686    11.00000   -1.20000
AFIX   0
C29   1    0.005409    0.338915    0.372566    11.00000    0.07095    0.05341 =
         0.06270   -0.00533    0.00489   -0.00007
AFIX  43
H29   2    0.007715    0.245937    0.382144    11.00000   -1.20000
AFIX   0
C30   1    0.113502    0.236044    0.187577    11.00000    0.04990    0.03714 =
         0.05129   -0.00020   -0.00158   -0.00063
C31   1    0.120103    0.123285    0.232398    11.00000    0.04738    0.03789 =
         0.04477   -0.00010   -0.00093    0.00125
C32   1    0.090218    0.170161    0.287495    11.00000    0.05213    0.03865 =
         0.05399    0.00258   -0.00431    0.00076
AFIX  43
H32   2    0.086479    0.121975    0.326511    11.00000   -1.20000
AFIX   0
C33   1    0.135319    0.244170    0.120741    11.00000    0.06128    0.03844 =
         0.05089    0.00179   -0.00089   -0.00246
C34   1    0.192986    0.188910    0.094870    11.00000    0.06181    0.05440 =
         0.05554    0.00642    0.00551    0.00455
AFIX  43
H34   2    0.227400    0.140826    0.119763    11.00000   -1.20000
AFIX   0
C35   1    0.194329    0.212888    0.026820    11.00000    0.08648    0.06045 =
         0.06091    0.00225    0.02080   -0.00204
AFIX  43
H35   2    0.229768    0.182593    0.001853    11.00000   -1.20000
AFIX   0
C36   1    0.138612    0.284656    0.001600    11.00000    0.11577    0.06630 =
         0.04573    0.00797    0.00514   -0.00023
AFIX  43
H36   2    0.131071    0.308578   -0.042657    11.00000   -1.20000
AFIX   0
C37   1    0.150470   -0.006793    0.219207    11.00000    0.04915    0.04185 =
         0.04860   -0.00408   -0.00231    0.00172
AFIX  43
H37   2    0.163354   -0.018387    0.176400    11.00000   -1.20000
AFIX   0
C38   1    0.163202   -0.115363    0.259794    11.00000    0.05070    0.03987 =
         0.05044    0.00111   -0.00278    0.00275
C39   1    0.143422   -0.115068    0.325928    11.00000    0.06705    0.04494 =
         0.05518    0.00419    0.00029    0.00436
C40   1    0.193623   -0.246091    0.238084    11.00000    0.05185    0.03982 =
         0.06459   -0.00040   -0.00968    0.00304
C41   1    0.227809   -0.253043    0.175641    11.00000    0.05524    0.04757 =
         0.05584   -0.00832   -0.01167    0.01410
C42   1    0.216979   -0.369860    0.136954    11.00000    0.08114    0.05744 =
         0.08329   -0.02310   -0.02048    0.01951
AFIX  43
H42   2    0.189011   -0.440018    0.150910    11.00000   -1.20000
AFIX   0
C43   1    0.246998   -0.381757    0.079089    11.00000    0.12903    0.10096 =
         0.08307   -0.03931   -0.02733    0.04908
AFIX  43
H43   2    0.239296   -0.459619    0.053271    11.00000   -1.20000
AFIX   0
C44   1    0.288588   -0.279371    0.058656    11.00000    0.12963    0.13511 =
         0.04969   -0.01010   -0.00057    0.07543
AFIX  43
H44   2    0.308100   -0.287526    0.018394    11.00000   -1.20000
AFIX   0
C45   1    0.302264   -0.163197    0.096980    11.00000    0.08283    0.10220 =
         0.07065    0.01297    0.01301    0.03706
AFIX  43
H45   2    0.331730   -0.095273    0.083306    11.00000   -1.20000
AFIX   0
C46   1    0.271492   -0.150698    0.155289    11.00000    0.06107    0.05850 =
         0.05933   -0.00080   -0.00304    0.01688
AFIX  43
H46   2    0.279869   -0.073400    0.181363    11.00000   -1.20000
AFIX   0
N1    3   -0.044089   -0.005254    0.188233    11.00000    0.05118    0.04084 =
         0.04466    0.00144    0.00398    0.00348
N2    3   -0.057191   -0.044968    0.250234    11.00000    0.05647    0.04166 =
         0.04641    0.00316    0.00765    0.00129
N3    3   -0.117476    0.387532    0.076449    11.00000    0.13324    0.08009 =
         0.06079    0.01409    0.02721    0.01880
N4    3    0.067427    0.298010    0.274774    11.00000    0.05288    0.04003 =
         0.05264   -0.00285    0.00016    0.00309
N5    3    0.081514    0.341248    0.213371    11.00000    0.05843    0.04152 =
         0.05042    0.00136    0.00234    0.00357
N6    3    0.127000   -0.113797    0.378680    11.00000    0.10740    0.07625 =
         0.06221    0.00543    0.01569    0.00277
O1    4   -0.165451    0.639460    0.180614    11.00000    0.08462    0.04749 =
         0.08081    0.01586    0.01396    0.00792
O2    4    0.189503   -0.347540    0.272961    11.00000    0.08832    0.04531 =
         0.09006    0.01604    0.00582    0.00880
S2    5    0.084062    0.326035    0.059950    11.00000    0.08863    0.05884 =
         0.06183    0.00976   -0.00641    0.01384
HKLF 4
REM  bmk1722d in P2(1)/n
REM R1 =  0.0570 for    4750 Fo > 4sig(Fo)  and  0.1263 for all    9267 data
REM    524 parameters refined using     30 restraints
END
WGHT      0.0637      0.3918
REM Highest difference peak  0.160,  deepest hole -0.299,  1-sigma level  0.045
Q1    1  -0.2297  0.1536  0.3279  11.00000  0.05    0.16
Q2    1   0.2963 -0.0560  0.2167  11.00000  0.05    0.16
Q3    1   0.1021  0.2341  0.1006  11.00000  0.05    0.15
Q4    1  -0.2406  0.2239  0.2900  11.00000  0.05    0.15
Q5    1   0.1582  0.1962  0.1130  11.00000  0.05    0.15
Q6    1  -0.0563  0.0024  0.5108  11.00000  0.05    0.15
Q7    1   0.0801 -0.2011  0.4437  11.00000  0.05    0.14
Q8    1   0.1449 -0.2151  0.0762  11.00000  0.05    0.14
Q9    1  -0.0023 -0.5099  0.0542  11.00000  0.05    0.14
Q10   1   0.1518  0.2770  0.1178  11.00000  0.05    0.14
Q11   1   0.2215 -0.4979  0.0622  11.00000  0.05    0.14
Q12   1   0.0657  0.4349  0.1873  11.00000  0.05    0.14
Q13   1   0.1000 -0.0056  0.0403  11.00000  0.05    0.14
Q14   1  -0.1147  0.2136  0.2299  11.00000  0.05    0.13
Q15   1   0.0182  0.3799  0.1799  11.00000  0.05    0.13
Q16   1  -0.1221  0.3832  0.3339  11.00000  0.05    0.13
Q17   1  -0.1603  0.7574  0.4143  11.00000  0.05    0.13
Q18   1   0.1566 -0.4998  0.2168  11.00000  0.05    0.13
Q19   1  -0.0835  0.4085  0.2869  11.00000  0.05    0.13
Q20   1  -0.1012  0.1910  0.3792  11.00000  0.05    0.13
;
_shelx_res_checksum              47350
loop_
_space_group_symop_operation_xyz
'x, y, z'
'-x+1/2, y+1/2, -z+1/2'
'-x, -y, -z'
'x-1/2, -y-1/2, z-1/2'
loop_
_atom_site_type_symbol
_atom_site_label
_atom_site_fract_x
_atom_site_fract_y
_atom_site_fract_z
_atom_site_U_iso_or_equiv
_atom_site_adp_type
_atom_site_calc_flag
_atom_site_occupancy
_atom_site_disorder_assembly
_atom_site_disorder_group
C C1 -0.01004(11) -0.0978(2) 0.14670(12) 0.0454(5) Uani d 1 . .
C C2 -0.00943(13) -0.2356(2) 0.16190(14) 0.0609(7) Uani d 1 . .
H H2 -0.031422 -0.267522 0.198053 0.073 Uiso calc 1 . .
C C3 0.02426(14) -0.3250(3) 0.12271(15) 0.0695(8) Uani d 1 . .
H H3 0.024800 -0.417852 0.132607 0.083 Uiso calc 1 . .
C C4 0.05675(14) -0.2795(3) 0.06974(14) 0.0650(7) Uani d 1 . .
H H4 0.079374 -0.340837 0.043723 0.078 Uiso calc 1 . .
C C5 0.05588(13) -0.1424(3) 0.05496(13) 0.0626(7) Uani d 1 . .
H H5 0.077931 -0.111057 0.018732 0.075 Uiso calc 1 . .
C C6 0.02243(12) -0.0504(2) 0.09361(12) 0.0551(6) Uani d 1 . .
H H6 0.022041 0.042453 0.083616 0.066 Uiso calc 1 . .
C C7 -0.08758(11) 0.0626(2) 0.27623(12) 0.0449(5) Uani d 1 . .
C C8 -0.09450(11) 0.1731(2) 0.23004(11) 0.0441(5) Uani d 1 . .
C C9 -0.06568(11) 0.1226(2) 0.17469(12) 0.0465(5) Uani d 1 . .
H H9 -0.061972 0.169013 0.135190 0.056 Uiso calc 1 . .
C C10 -0.10581(12) 0.0561(2) 0.34403(12) 0.0481(6) Uani d 0.768(3) A 1
C C11 -0.1596(6) 0.1225(13) 0.3717(5) 0.062(3) Uani d 0.768(3) A 1
H H11 -0.191951 0.178354 0.348419 0.075 Uiso calc 0.768(3) A 1
C C12 -0.1591(3) 0.0939(6) 0.4414(3) 0.0722(15) Uani d 0.768(3) A 1
H H12 -0.192933 0.124859 0.468043 0.087 Uiso calc 0.768(3) A 1
C C13 -0.1036(3) 0.0167(6) 0.4635(2) 0.0678(14) Uani d 0.768(3) A 1
H H13 -0.093513 -0.007245 0.507529 0.081 Uiso calc 0.768(3) A 1
S S1 -0.05506(10) -0.03086(17) 0.40164(7) 0.0597(4) Uani d 0.768(3) A 1
C C10A -0.10581(12) 0.0561(2) 0.34403(12) 0.0481(6) Uani d 0.232(3) A 2
C C11A -0.0610(12) -0.009(3) 0.3929(9) 0.062(3) Uani d 0.232(3) A 2
H H11A -0.018667 -0.049121 0.384726 0.075 Uiso calc 0.232(3) A 2
C C12A -0.0885(13) -0.007(3) 0.4559(9) 0.0722(15) Uani d 0.232(3) A 2
H H12A -0.068910 -0.051770 0.493105 0.087 Uiso calc 0.232(3) A 2
C C13A -0.1462(13) 0.070(3) 0.4546(9) 0.0678(14) Uani d 0.232(3) A 2
H H13A -0.169438 0.091173 0.491652 0.081 Uiso calc 0.232(3) A 2
S S1A -0.1719(7) 0.1219(13) 0.3767(6) 0.078(3) Uani d 0.232(3) A 2
C C14 -0.12398(11) 0.3051(2) 0.24226(12) 0.0470(5) Uani d 1 . .
H H14 -0.133136 0.322213 0.285753 0.056 Uiso calc 1 . .
C C15 -0.14026(11) 0.4081(2) 0.19891(12) 0.0481(6) Uani d 1 . .
C C16 -0.12709(14) 0.3971(2) 0.13089(16) 0.0611(7) Uani d 1 . .
C C17 -0.16859(12) 0.5420(2) 0.21806(13) 0.0516(6) Uani d 1 . .
C C18 -0.20071(12) 0.5570(2) 0.28148(12) 0.0513(6) Uani d 1 . .
C C19 -0.18888(14) 0.6776(2) 0.31687(14) 0.0632(7) Uani d 1 . .
H H19 -0.160196 0.744603 0.301042 0.076 Uiso calc 1 . .
C C20 -0.21904(16) 0.6985(3) 0.37465(16) 0.0778(9) Uani d 1 . .
H H20 -0.210875 0.779466 0.397992 0.093 Uiso calc 1 . .
C C21 -0.26172(16) 0.5994(3) 0.39848(15) 0.0788(9) Uani d 1 . .
H H21 -0.281367 0.612784 0.438361 0.095 Uiso calc 1 . .
C C22 -0.27520(14) 0.4806(3) 0.36313(15) 0.0681(7) Uani d 1 . .
H H22 -0.304895 0.415018 0.378622 0.082 Uiso calc 1 . .
C C23 -0.24482(12) 0.4590(2) 0.30512(13) 0.0550(6) Uani d 1 . .
H H23 -0.253778 0.378644 0.281531 0.066 Uiso calc 1 . .
C C24 0.03423(11) 0.3885(2) 0.31778(13) 0.0498(6) Uani d 1 . .
C C25 0.03157(13) 0.5267(2) 0.30351(15) 0.0671(8) Uani d 1 . .
H H25 0.051478 0.560383 0.266545 0.081 Uiso calc 1 . .
C C26 -0.00072(16) 0.6135(3) 0.34441(18) 0.0842(9) Uani d 1 . .
H H26 -0.002661 0.706520 0.334874 0.101 Uiso calc 1 . .
C C27 -0.03021(15) 0.5654(3) 0.39917(17) 0.0810(9) Uani d 1 . .
H H27 -0.052164 0.625314 0.426430 0.097 Uiso calc 1 . .
C C28 -0.02707(14) 0.4271(3) 0.41355(15) 0.0735(8) Uani d 1 . .
H H28 -0.046752 0.393605 0.450686 0.088 Uiso calc 1 . .
C C29 0.00541(13) 0.3389(3) 0.37257(14) 0.0624(7) Uani d 1 . .
H H29 0.007715 0.245937 0.382144 0.075 Uiso calc 1 . .
C C30 0.11350(11) 0.2360(2) 0.18758(12) 0.0464(6) Uani d 1 . .
C C31 0.12010(11) 0.1233(2) 0.23240(11) 0.0436(5) Uani d 1 . .
C C32 0.09022(11) 0.1702(2) 0.28749(12) 0.0487(6) Uani d 1 . .
H H32 0.086479 0.121975 0.326511 0.058 Uiso calc 1 . .
C C33 0.13532(12) 0.2442(2) 0.12074(12) 0.0505(6) Uani d 1 . .
C C34 0.19299(13) 0.1889(2) 0.09487(13) 0.0572(6) Uani d 1 . .
H H34 0.227400 0.140826 0.119763 0.069 Uiso calc 1 . .
C C35 0.19433(15) 0.2129(3) 0.02682(14) 0.0685(7) Uani d 1 . .
H H35 0.229768 0.182593 0.001853 0.082 Uiso calc 1 . .
C C36 0.13861(17) 0.2847(3) 0.00160(14) 0.0760(8) Uani d 1 . .
H H36 0.131071 0.308578 -0.042657 0.091 Uiso calc 1 . .
C C37 0.15047(11) -0.0068(2) 0.21921(12) 0.0468(6) Uani d 1 . .
H H37 0.163354 -0.018387 0.176400 0.056 Uiso calc 1 . .
C C38 0.16320(11) -0.1154(2) 0.25979(12) 0.0473(6) Uani d 1 . .
C C39 0.14342(13) -0.1151(2) 0.32593(15) 0.0560(6) Uani d 1 . .
C C40 0.19362(12) -0.2461(2) 0.23808(13) 0.0528(6) Uani d 1 . .
C C41 0.22781(12) -0.2530(2) 0.17564(13) 0.0537(6) Uani d 1 . .
C C42 0.21698(15) -0.3699(3) 0.13695(17) 0.0753(9) Uani d 1 . .
H H42 0.189011 -0.440018 0.150910 0.090 Uiso calc 1 . .
C C43 0.2470(2) -0.3818(4) 0.0791(2) 0.1062(13) Uani d 1 . .
H H43 0.239296 -0.459619 0.053271 0.127 Uiso calc 1 . .
C C44 0.2886(2) -0.2794(5) 0.05866(17) 0.1052(13) Uani d 1 . .
H H44 0.308100 -0.287526 0.018394 0.126 Uiso calc 1 . .
C C45 0.30226(16) -0.1632(4) 0.09698(17) 0.0849(9) Uani d 1 . .
H H45 0.331730 -0.095273 0.083306 0.102 Uiso calc 1 . .
C C46 0.27149(13) -0.1507(3) 0.15529(14) 0.0600(7) Uani d 1 . .
H H46 0.279869 -0.073400 0.181363 0.072 Uiso calc 1 . .
N N1 -0.04409(9) -0.00525(17) 0.18823(9) 0.0455(5) Uani d 1 . .
N N2 -0.05719(9) -0.04497(17) 0.25023(10) 0.0480(5) Uani d 1 . .
N N3 -0.11748(15) 0.3875(2) 0.07645(14) 0.0903(8) Uani d 1 . .
N N4 0.06743(9) 0.29801(17) 0.27477(10) 0.0487(5) Uani d 1 . .
N N5 0.08151(10) 0.34125(18) 0.21337(10) 0.0502(5) Uani d 1 . .
N N6 0.12700(14) -0.1138(2) 0.37868(14) 0.0815(7) Uani d 1 . .
O O1 -0.16545(9) 0.63946(16) 0.18061(10) 0.0706(5) Uani d 1 . .
O O2 0.18950(10) -0.34754(16) 0.27296(10) 0.0746(6) Uani d 1 . .
S S2 0.08406(4) 0.32604(7) 0.05995(4) 0.0704(2) Uani d 1 . .
loop_
_atom_site_aniso_label
_atom_site_aniso_U_11
_atom_site_aniso_U_22
_atom_site_aniso_U_33
_atom_site_aniso_U_12
_atom_site_aniso_U_13
_atom_site_aniso_U_23
C1 0.0443(12) 0.0460(12) 0.0456(15) 0.0044(10) 0.0016(11) -0.0034(11)
C2 0.0680(15) 0.0494(13) 0.0676(19) 0.0063(12) 0.0199(14) 0.0019(12)
C3 0.0821(18) 0.0518(14) 0.077(2) 0.0158(13) 0.0192(16) 0.0000(14)
C4 0.0691(16) 0.0690(17) 0.0569(19) 0.0221(14) 0.0055(14) -0.0082(14)
C5 0.0638(15) 0.0795(18) 0.0451(16) 0.0082(14) 0.0082(13) 0.0000(13)
C6 0.0657(15) 0.0531(13) 0.0462(16) 0.0023(12) 0.0019(13) 0.0037(12)
C7 0.0460(12) 0.0427(11) 0.0458(15) -0.0004(10) 0.0031(11) 0.0003(10)
C8 0.0477(12) 0.0421(11) 0.0420(14) 0.0023(10) 0.0000(10) 0.0001(10)
C9 0.0512(13) 0.0416(11) 0.0460(15) 0.0024(10) 0.0001(11) 0.0051(10)
C10 0.0546(13) 0.0415(11) 0.0489(16) 0.0006(10) 0.0092(12) 0.0000(10)
C11 0.059(5) 0.075(5) 0.054(4) 0.005(3) 0.015(3) 0.025(3)
C12 0.094(4) 0.068(3) 0.060(4) 0.010(2) 0.039(3) 0.011(2)
C13 0.093(5) 0.068(4) 0.044(2) 0.006(3) 0.014(2) 0.002(2)
S1 0.0714(7) 0.0573(7) 0.0508(8) 0.0087(5) 0.0071(6) 0.0099(5)
C10A 0.0546(13) 0.0415(11) 0.0489(16) 0.0006(10) 0.0092(12) 0.0000(10)
C11A 0.059(5) 0.075(5) 0.054(4) 0.005(3) 0.015(3) 0.025(3)
C12A 0.094(4) 0.068(3) 0.060(4) 0.010(2) 0.039(3) 0.011(2)
C13A 0.093(5) 0.068(4) 0.044(2) 0.006(3) 0.014(2) 0.002(2)
S1A 0.071(4) 0.069(4) 0.098(6) 0.006(3) 0.036(3) -0.001(3)
C14 0.0519(13) 0.0425(11) 0.0463(15) 0.0017(10) 0.0010(11) -0.0027(10)
C15 0.0533(13) 0.0440(12) 0.0468(16) 0.0025(10) 0.0033(11) 0.0020(11)
C16 0.0728(17) 0.0510(14) 0.060(2) 0.0088(12) 0.0102(15) 0.0090(13)
C17 0.0521(13) 0.0418(12) 0.0597(17) 0.0001(10) -0.0035(12) 0.0029(12)
C18 0.0559(14) 0.0411(11) 0.0558(17) 0.0089(11) -0.0029(12) 0.0015(11)
C19 0.0741(17) 0.0475(13) 0.067(2) 0.0061(12) -0.0048(15) -0.0047(13)
C20 0.097(2) 0.0625(17) 0.072(2) 0.0120(16) -0.0090(18) -0.0148(16)
C21 0.090(2) 0.091(2) 0.0546(19) 0.0268(18) 0.0018(16) -0.0118(17)
C22 0.0669(16) 0.0693(17) 0.068(2) 0.0111(13) 0.0055(15) 0.0039(15)
C23 0.0561(14) 0.0511(13) 0.0575(17) 0.0069(11) 0.0026(13) -0.0037(12)
C24 0.0474(12) 0.0457(12) 0.0557(17) 0.0015(10) 0.0007(12) -0.0056(11)
C25 0.0745(17) 0.0466(13) 0.082(2) 0.0090(13) 0.0182(16) 0.0003(13)
C26 0.097(2) 0.0545(15) 0.104(3) 0.0179(15) 0.027(2) -0.0068(17)
C27 0.084(2) 0.0729(19) 0.087(3) 0.0185(16) 0.0137(18) -0.0224(17)
C28 0.0761(18) 0.0809(19) 0.065(2) 0.0025(15) 0.0133(15) -0.0117(16)
C29 0.0709(16) 0.0534(14) 0.0627(19) -0.0001(13) 0.0049(14) -0.0053(13)
C30 0.0499(12) 0.0371(11) 0.0513(16) -0.0006(10) -0.0016(11) -0.0002(10)
C31 0.0474(12) 0.0379(11) 0.0448(14) 0.0013(9) -0.0009(11) -0.0001(10)
C32 0.0521(13) 0.0387(11) 0.0540(16) 0.0008(10) -0.0043(11) 0.0026(11)
C33 0.0613(14) 0.0384(11) 0.0509(16) -0.0025(11) -0.0009(12) 0.0018(10)
C34 0.0618(15) 0.0544(13) 0.0555(18) 0.0046(12) 0.0055(13) 0.0064(12)
C35 0.0865(19) 0.0605(15) 0.061(2) -0.0020(15) 0.0208(16) 0.0022(14)
C36 0.116(2) 0.0663(17) 0.0457(18) -0.0002(17) 0.0051(17) 0.0080(14)
C37 0.0492(12) 0.0418(11) 0.0486(15) 0.0017(10) -0.0023(11) -0.0041(10)
C38 0.0507(13) 0.0399(11) 0.0504(16) 0.0028(10) -0.0028(11) 0.0011(10)
C39 0.0671(16) 0.0449(13) 0.0552(19) 0.0044(11) 0.0003(14) 0.0042(12)
C40 0.0518(13) 0.0398(12) 0.0646(18) 0.0030(10) -0.0097(13) -0.0004(12)
C41 0.0552(14) 0.0476(13) 0.0558(17) 0.0141(11) -0.0117(13) -0.0083(12)
C42 0.0811(19) 0.0574(15) 0.083(2) 0.0195(14) -0.0205(17) -0.0231(15)
C43 0.129(3) 0.101(3) 0.083(3) 0.049(2) -0.027(2) -0.039(2)
C44 0.130(3) 0.135(3) 0.050(2) 0.075(3) -0.001(2) -0.010(2)
C45 0.083(2) 0.102(2) 0.071(2) 0.0371(18) 0.0130(18) 0.0130(19)
C46 0.0611(15) 0.0585(15) 0.0593(19) 0.0169(12) -0.0030(14) -0.0008(13)
N1 0.0512(10) 0.0408(9) 0.0447(13) 0.0035(8) 0.0040(9) 0.0014(9)
N2 0.0565(11) 0.0417(10) 0.0464(13) 0.0013(9) 0.0077(9) 0.0032(9)
N3 0.133(2) 0.0801(17) 0.0608(19) 0.0188(15) 0.0272(17) 0.0141(14)
N4 0.0529(11) 0.0400(9) 0.0526(14) 0.0031(8) 0.0002(10) -0.0029(9)
N5 0.0584(11) 0.0415(10) 0.0504(14) 0.0036(9) 0.0023(10) 0.0014(9)
N6 0.107(2) 0.0762(16) 0.0622(18) 0.0028(14) 0.0157(15) 0.0054(13)
O1 0.0846(12) 0.0475(9) 0.0808(15) 0.0079(9) 0.0140(10) 0.0159(9)
O2 0.0883(13) 0.0453(9) 0.0901(16) 0.0088(9) 0.0058(11) 0.0160(10)
S2 0.0886(5) 0.0588(4) 0.0618(5) 0.0138(3) -0.0064(4) 0.0098(3)
loop_
_atom_type_symbol
_atom_type_description
_atom_type_scat_dispersion_real
_atom_type_scat_dispersion_imag
_atom_type_scat_source
C C 0.0033 0.0016 'International Tables Vol C Tables 4.2.6.8 and 6.1.1.4'
H H 0.0000 0.0000 'International Tables Vol C Tables 4.2.6.8 and 6.1.1.4'
N N 0.0061 0.0033 'International Tables Vol C Tables 4.2.6.8 and 6.1.1.4'
O O 0.0106 0.0060 'International Tables Vol C Tables 4.2.6.8 and 6.1.1.4'
S S 0.1246 0.1234 'International Tables Vol C Tables 4.2.6.8 and 6.1.1.4'
loop_
_geom_angle_atom_site_label_1
_geom_angle_atom_site_label_2
_geom_angle_atom_site_label_3
_geom_angle
C6 C1 C2 120.7(2)
C6 C1 N1 120.6(2)
C2 C1 N1 118.8(2)
C3 C2 C1 119.0(2)
C3 C2 H2 120.5
C1 C2 H2 120.5
C4 C3 C2 121.1(2)
C4 C3 H3 119.5
C2 C3 H3 119.5
C3 C4 C5 119.6(2)
C3 C4 H4 120.2
C5 C4 H4 120.2
C4 C5 C6 120.5(3)
C4 C5 H5 119.7
C6 C5 H5 119.7
C1 C6 C5 119.2(2)
C1 C6 H6 120.4
C5 C6 H6 120.4
N2 C7 C8 110.9(2)
N2 C7 C10 119.2(2)
C8 C7 C10 129.8(2)
N2 C7 C10A 119.2(2)
C8 C7 C10A 129.8(2)
C9 C8 C7 103.97(18)
C9 C8 C14 130.5(2)
C7 C8 C14 125.6(2)
N1 C9 C8 107.7(2)
N1 C9 H9 126.2
C8 C9 H9 126.2
C11 C10 C7 127.7(5)
C11 C10 S1 111.5(4)
C7 C10 S1 120.64(17)
C10 C11 C12 111.1(7)
C10 C11 H11 124.4
C12 C11 H11 124.4
C13 C12 C11 112.3(5)
C13 C12 H12 123.9
C11 C12 H12 123.9
C12 C13 S1 111.9(4)
C12 C13 H13 124.1
S1 C13 H13 124.1
C13 S1 C10 93.1(2)
C11A C10A C7 120.4(9)
C11A C10A S1A 110.4(9)
C7 C10A S1A 129.1(5)
C10A C11A C12A 111.9(14)
C10A C11A H11A 124.1
C12A C11A H11A 124.1
C13A C12A C11A 111.0(16)
C13A C12A H12A 124.5
C11A C12A H12A 124.5
C12A C13A S1A 111.6(15)
C12A C13A H13A 124.2
S1A C13A H13A 124.2
C10A S1A C13A 94.6(9)
C15 C14 C8 128.8(2)
C15 C14 H14 115.6
C8 C14 H14 115.6
C14 C15 C16 121.5(2)
C14 C15 C17 123.8(2)
C16 C15 C17 114.6(2)
N3 C16 C15 179.0(3)
O1 C17 C18 120.6(2)
O1 C17 C15 119.2(2)
C18 C17 C15 120.2(2)
C23 C18 C19 119.0(2)
C23 C18 C17 122.8(2)
C19 C18 C17 118.1(2)
C20 C19 C18 120.5(3)
C20 C19 H19 119.7
C18 C19 H19 119.7
C19 C20 C21 120.1(3)
C19 C20 H20 120.0
C21 C20 H20 120.0
C22 C21 C20 120.0(3)
C22 C21 H21 120.0
C20 C21 H21 120.0
C23 C22 C21 120.0(3)
C23 C22 H22 120.0
C21 C22 H22 120.0
C22 C23 C18 120.3(2)
C22 C23 H23 119.9
C18 C23 H23 119.9
C29 C24 C25 120.4(2)
C29 C24 N4 120.4(2)
C25 C24 N4 119.2(2)
C26 C25 C24 119.3(3)
C26 C25 H25 120.3
C24 C25 H25 120.3
C25 C26 C27 121.1(3)
C25 C26 H26 119.5
C27 C26 H26 119.5
C26 C27 C28 119.5(3)
C26 C27 H27 120.3
C28 C27 H27 120.3
C29 C28 C27 119.8(3)
C29 C28 H28 120.1
C27 C28 H28 120.1
C24 C29 C28 120.0(2)
C24 C29 H29 120.0
C28 C29 H29 120.0
N5 C30 C31 111.5(2)
N5 C30 C33 120.2(2)
C31 C30 C33 128.3(2)
C32 C31 C30 103.86(18)
C32 C31 C37 130.5(2)
C30 C31 C37 125.6(2)
N4 C32 C31 107.7(2)
N4 C32 H32 126.1
C31 C32 H32 126.1
C34 C33 C30 129.5(2)
C34 C33 S2 110.13(19)
C30 C33 S2 120.36(17)
C33 C34 C35 112.8(2)
C33 C34 H34 123.6
C35 C34 H34 123.6
C36 C35 C34 112.7(3)
C36 C35 H35 123.6
C34 C35 H35 123.6
C35 C36 S2 112.1(2)
C35 C36 H36 123.9
S2 C36 H36 123.9
C38 C37 C31 129.7(2)
C38 C37 H37 115.2
C31 C37 H37 115.2
C37 C38 C39 121.6(2)
C37 C38 C40 123.3(2)
C39 C38 C40 114.9(2)
N6 C39 C38 179.2(3)
O2 C40 C41 120.9(2)
O2 C40 C38 118.6(2)
C41 C40 C38 120.5(2)
C46 C41 C42 119.3(3)
C46 C41 C40 122.9(2)
C42 C41 C40 117.8(3)
C43 C42 C41 120.3(3)
C43 C42 H42 119.8
C41 C42 H42 119.8
C42 C43 C44 120.0(3)
C42 C43 H43 120.0
C44 C43 H43 120.0
C43 C44 C45 121.2(4)
C43 C44 H44 119.4
C45 C44 H44 119.4
C46 C45 C44 118.8(3)
C46 C45 H45 120.6
C44 C45 H45 120.6
C45 C46 C41 120.3(3)
C45 C46 H46 119.8
C41 C46 H46 119.8
C9 N1 N2 112.32(18)
C9 N1 C1 128.2(2)
N2 N1 C1 119.48(17)
C7 N2 N1 105.10(17)
C32 N4 N5 112.28(18)
C32 N4 C24 127.8(2)
N5 N4 C24 119.83(17)
C30 N5 N4 104.61(18)
C36 S2 C33 92.24(14)
loop_
_geom_bond_atom_site_label_1
_geom_bond_atom_site_label_2
_geom_bond_distance
C1 C6 1.370(3)
C1 C2 1.382(3)
C1 N1 1.431(3)
C2 C3 1.378(3)
C2 H2 0.9300
C3 C4 1.361(4)
C3 H3 0.9300
C4 C5 1.374(3)
C4 H4 0.9300
C5 C6 1.385(3)
C5 H5 0.9300
C6 H6 0.9300
C7 N2 1.333(3)
C7 C8 1.430(3)
C7 C10 1.450(3)
C7 C10A 1.450(3)
C8 C9 1.384(3)
C8 C14 1.439(3)
C9 N1 1.339(3)
C9 H9 0.9300
C10 C11 1.378(10)
C10 S1 1.695(3)
C11 C12 1.444(10)
C11 H11 0.9300
C12 C13 1.357(5)
C12 H12 0.9300
C13 S1 1.690(4)
C13 H13 0.9300
C10A C11A 1.417(15)
C10A S1A 1.615(10)
C11A C12A 1.425(16)
C11A H11A 0.9300
C12A C13A 1.336(14)
C12A H12A 0.9300
C13A S1A 1.700(14)
C13A H13A 0.9300
C14 C15 1.359(3)
C14 H14 0.9300
C15 C16 1.429(4)
C15 C17 1.482(3)
C16 N3 1.140(3)
C17 O1 1.224(3)
C17 C18 1.480(3)
C18 C23 1.390(3)
C18 C19 1.392(3)
C19 C20 1.365(4)
C19 H19 0.9300
C20 C21 1.383(4)
C20 H20 0.9300
C21 C22 1.380(4)
C21 H21 0.9300
C22 C23 1.372(4)
C22 H22 0.9300
C23 H23 0.9300
C24 C29 1.371(3)
C24 C25 1.381(3)
C24 N4 1.429(3)
C25 C26 1.371(4)
C25 H25 0.9300
C26 C27 1.371(4)
C26 H26 0.9300
C27 C28 1.384(4)
C27 H27 0.9300
C28 C29 1.382(4)
C28 H28 0.9300
C29 H29 0.9300
C30 N5 1.328(3)
C30 C31 1.430(3)
C30 C33 1.455(3)
C31 C32 1.377(3)
C31 C37 1.434(3)
C32 N4 1.343(3)
C32 H32 0.9300
C33 C34 1.376(3)
C33 S2 1.719(2)
C34 C35 1.405(3)
C34 H34 0.9300
C35 C36 1.350(4)
C35 H35 0.9300
C36 S2 1.693(3)
C36 H36 0.9300
C37 C38 1.355(3)
C37 H37 0.9300
C38 C39 1.425(4)
C38 C40 1.487(3)
C39 N6 1.141(3)
C40 O2 1.225(3)
C40 C41 1.476(4)
C41 C46 1.391(3)
C41 C42 1.393(3)
C42 C43 1.355(5)
C42 H42 0.9300
C43 C44 1.367(5)
C43 H43 0.9300
C44 C45 1.391(5)
C44 H44 0.9300
C45 C46 1.371(4)
C45 H45 0.9300
C46 H46 0.9300
N1 N2 1.361(2)
N4 N5 1.365(3)
loop_
_geom_hbond_atom_site_label_D
_geom_hbond_atom_site_label_H
_geom_hbond_atom_site_label_A
_geom_hbond_site_symmetry_A
_geom_hbond_distance_DH
_geom_hbond_distance_HA
_geom_hbond_distance_DA
_geom_hbond_angle_DHA
_geom_hbond_publ_flag
C34 H34 O2 2 0.93 2.61 3.396(3) 143 yes
C46 H46 O2 2 0.93 2.45 3.363(3) 167 yes

_cod_database_fobs_code 1548842
