#------------------------------------------------------------------------------
#$Date: 2017-06-05 03:47:31 +0300 (Mon, 05 Jun 2017) $
#$Revision: 197492 $
#$URL: file:///home/coder/svn-repositories/cod/cif/1/54/57/1545781.cif $
#------------------------------------------------------------------------------
#
# This file is available in the Crystallography Open Database (COD),
# http://www.crystallography.net/
#
# All data on this site have been placed in the public domain by the
# contributors.
#
data_1545781
loop_
_publ_author_name
'Sekiya, Shinji'
'Okumura, Mao'
'Kubota, Kei'
'Nakamura, Tatsuya'
'Sekine, Daisuke'
'Hosokawa, Seijiro'
_publ_section_title
;
 Remote Asymmetric Bromination Reaction with Vinylketene Silyl N,O-Acetal
 and Its Application to Total Synthesis of Pellasoren A.
;
_journal_issue                   9
_journal_name_full               'Organic letters'
_journal_page_first              2394
_journal_page_last               2397
_journal_paper_doi               10.1021/acs.orglett.7b00920
_journal_volume                  19
_journal_year                    2017
_chemical_absolute_configuration 'CHOOSE rm ad rmad syn or unk'
_chemical_formula_moiety         'C14 H21 N O4 S'
_chemical_formula_sum            'C14 H21 N O4 S'
_chemical_formula_weight         299.38
_space_group_crystal_system      monoclinic
_space_group_IT_number           5
_space_group_name_Hall           'I 2y'
_space_group_name_H-M_alt        'I 1 2 1'
_symmetry_space_group_name_Hall  'I 2y'
_symmetry_space_group_name_H-M   'I 1 2 1'
_atom_sites_solution_hydrogens   geom
_atom_sites_solution_primary     direct
_atom_sites_solution_secondary   difmap
_cell_angle_alpha                90.0000
_cell_angle_beta                 99.03(2)
_cell_angle_gamma                90.0000
_cell_formula_units_Z            4
_cell_length_a                   14.811(6)
_cell_length_b                   5.342(2)
_cell_length_c                   19.823(7)
_cell_measurement_reflns_used    4189
_cell_measurement_temperature    123
_cell_measurement_theta_max      27.57
_cell_measurement_theta_min      3.21
_cell_volume                     1549.0(10)
_computing_cell_refinement       'RAPID AUTO'
_computing_data_collection       'RAPID AUTO (Rigaku, ????)'
_computing_data_reduction        'RAPID AUTO'
_computing_molecular_graphics    'CrystalStructure 4.2'
_computing_publication_material  'CrystalStructure 4.2 (Rigaku, 2015)'
_computing_structure_refinement  'SHELXL Version 2014/6 (Sheldrick, 2008)'
_computing_structure_solution    'SHELXT Version 2014/4 (Sheldrick, 2014)'
_diffrn_ambient_temperature      123
_diffrn_detector_area_resol_mean 10.000
_diffrn_measured_fraction_theta_full 0.997
_diffrn_measured_fraction_theta_max 0.997
_diffrn_measurement_device_type  'Rigaku R-AXIS RAPID'
_diffrn_measurement_method       \w
_diffrn_radiation_type           'Mo K\a'
_diffrn_radiation_wavelength     0.71075
_diffrn_reflns_av_R_equivalents  0.1264
_diffrn_reflns_Laue_measured_fraction_full 0.997
_diffrn_reflns_Laue_measured_fraction_max 0.997
_diffrn_reflns_limit_h_max       19
_diffrn_reflns_limit_h_min       -19
_diffrn_reflns_limit_k_max       6
_diffrn_reflns_limit_k_min       -6
_diffrn_reflns_limit_l_max       25
_diffrn_reflns_limit_l_min       -25
_diffrn_reflns_number            7392
_diffrn_reflns_point_group_measured_fraction_full 0.988
_diffrn_reflns_point_group_measured_fraction_max 0.975
_diffrn_reflns_theta_full        25.242
_diffrn_reflns_theta_max         27.484
_diffrn_reflns_theta_min         3.205
_diffrn_standards_number         0
_exptl_absorpt_coefficient_mu    0.221
_exptl_absorpt_correction_T_max  0.978
_exptl_absorpt_correction_T_min  0.280
_exptl_absorpt_correction_type   multi-scan
_exptl_absorpt_process_details   'ABSCOR (Rigaku, 1995)'
_exptl_crystal_colour            colorless
_exptl_crystal_density_diffrn    1.284
_exptl_crystal_density_method    'not measured'
_exptl_crystal_description       needle
_exptl_crystal_F_000             640.00
_exptl_crystal_size_max          0.400
_exptl_crystal_size_mid          0.200
_exptl_crystal_size_min          0.100
_refine_diff_density_max         0.54
_refine_diff_density_min         -0.59
_refine_ls_abs_structure_details
;
 Flack x determined using 540 quotients [(I+)-(I-)]/[(I+)+(I-)]
 (Parsons, Flack and Wagner, Acta Cryst. B69 (2013) 249-259).
;
_refine_ls_abs_structure_Flack   0.05(18)
_refine_ls_extinction_method     none
_refine_ls_goodness_of_fit_ref   1.021
_refine_ls_hydrogen_treatment    constr
_refine_ls_number_parameters     181
_refine_ls_number_reflns         3462
_refine_ls_number_restraints     1
_refine_ls_R_factor_all          0.1313
_refine_ls_R_factor_gt           0.0866
_refine_ls_shift/su_max          0.000
_refine_ls_structure_factor_coef Fsqd
_refine_ls_weighting_details
'w = 1/[\s^2^(Fo^2^)+(0.1020P)^2^] where P=(Fo^2^+2Fc^2^)/3'
_refine_ls_weighting_scheme      calc
_refine_ls_wR_factor_gt          0.2023
_refine_ls_wR_factor_ref         0.2479
_reflns_Friedel_coverage         0.764
_reflns_Friedel_fraction_full    0.977
_reflns_Friedel_fraction_max     0.947
_reflns_number_gt                1814
_reflns_number_total             3462
_reflns_threshold_expression     F^2^>2.0\s(F^2^)
_cod_data_source_file            ol7b00920_si_002.cif
_cod_data_source_block           test20170213
_cod_depositor_comments
'Adding full bibliography for 1545781--1545782.cif.'
_cod_database_code               1545781
_shelxl_version_number           2014/6
_shelx_res_file
;
TITL test20170213
CELL  0.71075 14.81080 5.34210 19.82300 90.00000 99.03400 90.00000
ZERR  4 0.00550 0.00210 0.00678 0.00000 0.02310 0.00000
LATT -2
SYMM    -X,    +Y,    -Z
SFAC C H N O S
UNIT 56 84 4 16 4
L.S. 10
FMAP 2
PLAN 43
WPDB -2
HTAB
BOND $H
CONF
LIST 4
TEMP -150.0
ACTA
SIZE 0.400 0.200 0.100
WGHT    0.102000
FVAR       0.56104
S1    5    0.328321    0.149378    0.440658    11.00000    0.06753    0.04970 =
         0.04381    0.00085    0.02005   -0.00006
O2    4    0.443714    0.229376    0.703852    11.00000    0.04788    0.04673 =
         0.05045    0.00639    0.01781    0.00975
O3    4    0.286110    0.845217    0.654839    11.00000    0.04948    0.05637 =
         0.04964    0.00101    0.02465    0.00530
O4    4    0.304346    0.893718    0.767424    11.00000    0.05240    0.04948 =
         0.04449   -0.00515    0.02210   -0.00160
O5    4    0.315903    0.512580    0.350365    11.00000    0.08313    0.04599 =
         0.05267    0.00440    0.01866   -0.00135
N6    3    0.391897    0.607111    0.727909    11.00000    0.04259    0.04379 =
         0.03694   -0.00302    0.01961    0.00699
C7    1    0.413816    0.427317    0.681566    11.00000    0.03784    0.04693 =
         0.04893   -0.00167    0.01864    0.00129
C8    1    0.406582    0.560564    0.801647    11.00000    0.04157    0.04694 =
         0.04129    0.00093    0.01750    0.00137
AFIX  13
H8    2    0.368600    0.413975    0.811289    11.00000   -1.20000
AFIX   0
C9    1    0.323138    0.788936    0.710037    11.00000    0.04692    0.03917 =
         0.05331    0.00088    0.03056    0.00396
C10   1    0.402823    0.501988    0.609580    11.00000    0.04178    0.05124 =
         0.04190   -0.00383    0.01752   -0.00054
C11   1    0.505165    0.512800    0.833111    11.00000    0.03900    0.05136 =
         0.04946   -0.00171    0.01841   -0.00336
AFIX  13
H11   2    0.522625    0.344124    0.817479    11.00000   -1.20000
AFIX   0
C12   1    0.325680    0.287273    0.360205    11.00000    0.04296    0.06200 =
         0.04412   -0.00590    0.01469   -0.00756
C13   1    0.364892    0.799599    0.826502    11.00000    0.04972    0.05915 =
         0.04504   -0.00387    0.02072    0.00731
AFIX  23
H13A  2    0.330434    0.761802    0.864220    11.00000   -1.20000
H13B  2    0.413164    0.923460    0.842714    11.00000   -1.20000
AFIX   0
C14   1    0.345454    0.361037    0.566030    11.00000    0.05329    0.04737 =
         0.04747   -0.00355    0.02228    0.00123
AFIX  43
H14   2    0.323829    0.209913    0.583074    11.00000   -1.20000
AFIX   0
C15   1    0.334657    0.109956    0.304427    11.00000    0.05310    0.05299 =
         0.04737   -0.00245    0.01957   -0.00302
AFIX  33
H15A  2    0.341825   -0.060357    0.322861    11.00000   -1.20000
H15B  2    0.279747    0.118334    0.269748    11.00000   -1.20000
H15C  2    0.388352    0.154298    0.283681    11.00000   -1.20000
AFIX   0
C16   1    0.511712    0.503186    0.910746    11.00000    0.06363    0.06946 =
         0.05091    0.00499    0.02060    0.00052
AFIX  33
H16A  2    0.575253    0.472359    0.931495    11.00000   -1.20000
H16B  2    0.491242    0.663128    0.927268    11.00000   -1.20000
H16C  2    0.472840    0.367903    0.923281    11.00000   -1.20000
AFIX   0
C17   1    0.456120    0.722484    0.592277    11.00000    0.04220    0.04690 =
         0.04684   -0.00413    0.01855   -0.00572
AFIX  33
H17A  2    0.492317    0.789290    0.634027    11.00000   -1.20000
H17B  2    0.497059    0.671610    0.560425    11.00000   -1.20000
H17C  2    0.414092    0.851801    0.570980    11.00000   -1.20000
AFIX   0
C18   1    0.312695    0.424825    0.491896    11.00000    0.05690    0.05738 =
         0.04349   -0.00147    0.01803   -0.00439
AFIX  13
H18   2    0.350592    0.565130    0.478088    11.00000   -1.20000
AFIX   0
C19   1    0.213893    0.505635    0.482438    11.00000    0.05325    0.08112 =
         0.05598   -0.01032    0.01240    0.01746
AFIX  33
H19A  2    0.193230    0.546586    0.434299    11.00000   -1.20000
H19B  2    0.176425    0.369323    0.496216    11.00000   -1.20000
H19C  2    0.207852    0.653481    0.510656    11.00000   -1.20000
AFIX   0
C20   1    0.572090    0.702924    0.811774    11.00000    0.04392    0.06729 =
         0.06550    0.00249    0.01727   -0.00771
AFIX  33
H20A  2    0.634266    0.661677    0.833752    11.00000   -1.20000
H20B  2    0.569039    0.698401    0.762044    11.00000   -1.20000
H20C  2    0.555980    0.870899    0.825809    11.00000   -1.20000
AFIX   0
HKLF 4

REM  test20170213
REM R1 =  0.0866 for    1814 Fo > 4sig(Fo)  and  0.1313 for all    3462 data
REM    181 parameters refined using      1 restraints

END

WGHT      0.1017      0.0000

REM Instructions for potential hydrogen bonds
EQIV $1 -x+1/2, y-1/2, -z+3/2
HTAB C8 O3_$1
HTAB C11 O2
EQIV $2 x, y-1, z
HTAB C14 O3_$2
HTAB C15 O5_$2
EQIV $3 -x+1/2, y-1/2, -z+1/2
HTAB C15 O5_$3
EQIV $4 -x+1, y, -z+1
HTAB C15 O2_$4
HTAB C19 O5

REM Highest difference peak  0.540,  deepest hole -0.585,  1-sigma level  0.083
Q1    1   0.5362  0.6696  0.5995  11.00000  0.05    0.41
Q2    1   0.4477  0.8653  0.6264  11.00000  0.05    0.34
Q3    1   0.5376  0.1437  0.8312  11.00000  0.05    0.30
Q4    1   0.2930  0.5309  0.8554  11.00000  0.05    0.30
Q5    1   0.5201  0.1235  0.7270  11.00000  0.05    0.29
Q6    1   0.4446  0.7709  0.5402  11.00000  0.05    0.28
Q7    1   0.2426  0.2501  0.3950  11.00000  0.05    0.28
Q8    1   0.2882  0.3935  0.8207  11.00000  0.05    0.27
Q9    1   0.3992  0.3302  0.4492  11.00000  0.05    0.27
Q10   1   0.5961  0.6359  0.7492  11.00000  0.05    0.26
Q11   1   0.2645 -0.0875  0.3107  11.00000  0.05    0.26
Q12   1   0.4232  1.1205  0.5221  11.00000  0.05    0.25
Q13   1   0.3174  0.4251  0.7998  11.00000  0.05    0.25
Q14   1   0.3218 -0.1358  0.4382  11.00000  0.05    0.25
Q15   1   0.4080  0.1540  0.4338  11.00000  0.05    0.24
Q16   1   0.5628  0.8237  0.6093  11.00000  0.05    0.24
Q17   1   0.4536  0.1315  0.7499  11.00000  0.05    0.24
Q18   1   0.2349  0.0498  0.4178  11.00000  0.05    0.24
Q19   1   0.4209  0.2071  0.4682  11.00000  0.05    0.24
Q20   1   0.2993  0.6261  0.9223  11.00000  0.05    0.24
Q21   1   0.3114  0.7504  0.8504  11.00000  0.05    0.23
Q22   1   0.6568  0.4510  0.7849  11.00000  0.05    0.23
Q23   1   0.2426  0.3585  0.3502  11.00000  0.05    0.23
Q24   1   0.3979 -0.0450  0.4447  11.00000  0.05    0.23
Q25   1   0.2384  0.1446  0.3524  11.00000  0.05    0.23
Q26   1   0.4433  0.2067  0.3076  11.00000  0.05    0.22
Q27   1   0.4668  0.8027  0.7288  11.00000  0.05    0.22
Q28   1   0.5451  0.3283  0.9620  11.00000  0.05    0.22
Q29   1   0.2996  0.4244  0.6100  11.00000  0.05    0.22
Q30   1   0.2367  0.1498  0.5743  11.00000  0.05    0.21
Q31   1   0.2419 -0.1281  0.3031  11.00000  0.05    0.21
Q32   1   0.4240  0.0506  0.4662  11.00000  0.05    0.21
Q33   1   0.4970  0.3037  0.7997  11.00000  0.05    0.21
Q34   1   0.2817  0.0131  0.4797  11.00000  0.05    0.21
Q35   1   0.3027  0.8210  0.5840  11.00000  0.05    0.21
Q36   1   0.3640  0.1963  0.7380  11.00000  0.05    0.21
Q37   1   0.2183  0.9148  0.5412  11.00000  0.05    0.21
Q38   1   0.3528  0.3026  0.4823  11.00000  0.05    0.20
Q39   1   0.5112  0.5051  0.6082  11.00000  0.05    0.20
Q40   1   0.2585 -0.0631  0.4431  11.00000  0.05    0.20
Q41   1   0.2290  0.3441  0.2421  11.00000  0.05    0.20
Q42   1   0.4875  0.7542  0.4998  11.00000  0.05    0.20
Q43   1   0.3621  0.5460  0.4553  11.00000  0.05    0.19
;
_shelx_res_checksum              42822
_shelx_hkl_file
;
  -2   0   2  414.00   20.14
   2   0  -2  419.12   23.92
  -1   0   3 2225.34  167.63
   1   0  -3 2257.58  171.95
  -1   0  -3 2121.21  166.45
   1   0   3 2234.89  174.77
   1   0   3 2319.21  179.20
  -1   0  -3 2319.88  180.57
  -2   0  -2  536.66   34.21
   2   0   2  520.39   33.42
   2   0   2  579.03   33.56
   0  -1   1 1793.97  142.49
   0   1  -1 1593.40  117.40
   0  -1  -1 1680.93  122.89
   0   1   1 1697.52  129.85
   0   1  -1 1915.50  147.57
   0  -1  -1 1881.29  133.42
   0   1   1 1949.66  136.34
   0  -1   1 1562.62  115.99
   1  -1   0 2537.69  206.73
   1   1   0 2247.45  182.44
  -1   1   0 2613.48  211.06
  -1  -1   0 2269.98  192.84
  -1   1   0 2622.91  207.34
   1  -1   0 2581.72  204.97
  -3   0   1 9598.85 1209.50
   3   0  -1 9999.00 1268.58
   0   0  -4   21.74    3.08
   0   0   4   19.30    2.92
  -1  -1   2 2113.62  162.79
   1   1  -2 2067.56  167.37
  -1   1   2 2373.50  175.93
   3   0   1  983.48   63.12
  -3   0  -1 1020.19   65.12
   2   0  -4  472.45   34.92
  -2   0   4  468.94   33.58
  -1  -1  -2  177.13    7.55
   1  -1   2  159.85   13.15
   1  -1   2  111.26    7.76
  -1   1  -2  132.64    7.99
  -1   1  -2  152.63   12.28
  -1  -1  -2  156.31   17.53
   1   1   2  144.22   10.95
  -2   1   1 1906.38  154.06
  -2  -1   1 1853.88  151.12
   2   1  -1 1875.15  143.95
  -2   1   1 2107.77  152.09
  -3   0   3  235.41   18.34
   3   0  -3  240.80   14.28
   0  -1   3  659.66   43.35
   0   1  -3  510.00   32.73
   0  -1   3  558.59   35.67
   2  -1   1 2723.97  233.84
  -2   1  -1 2814.25  240.22
   2   1   1 2457.87  217.86
  -2  -1  -1 2700.99  240.08
  -2   1  -1 2346.88  180.77
   1   0  -5    9.65    2.63
  -1   0   5    5.85    2.52
  -2   0  -4  640.82   46.15
   2   0   4  639.05   46.73
   2   0   4  635.49   43.41
  -2   1   3  486.82   27.10
   2  -1  -3  489.20   28.74
  -2  -1   3  431.00   31.77
   2   1  -3  429.82   32.03
   4   0   0  725.98   45.25
  -4   0   0  774.19   48.07
   1   0   5  184.90   12.10
  -1   0  -5  184.60   17.30
   1   0   5  179.96   15.82
  -3   0  -3  919.47   60.62
   3   0   3  855.27   52.57
   3   0   3  867.69   56.90
  -4   0   2 1886.62  147.17
   4   0  -2 1867.45  146.65
   1   1  -4  947.61   67.41
  -1  -1   4  956.61   67.11
  -1   1   4 1029.46   76.26
  -3   1   0 1248.51   89.03
  -3   1   0 1203.53   71.00
   3   1   0 1137.83   87.60
  -3  -1   0 1189.86   91.07
  -3   1   2 4903.92  481.64
  -3  -1   2 4740.70  482.25
   3   1  -2 4389.77  460.09
   3  -1  -2 4823.75  481.60
   2   1   3 1104.93   77.50
  -2   1  -3 1135.31   82.22
  -2  -1  -3 1039.86   76.39
  -2   1  -3 1065.70   65.31
   2  -1   3 1079.17   90.01
   1  -1   4   53.35   11.36
  -1   1  -4   48.12    4.96
  -1   1  -4   56.89    7.16
   1  -1   4   40.86    4.76
   3   0  -5    8.45    2.44
  -3   0   5    6.96    3.91
   0   0  -6  373.64   28.91
   0   0   6  380.10   28.27
   4   0   2 6139.17  684.42
  -4   0  -2 6675.20  743.87
  -3   1  -2 2219.89  186.81
   3   1   2 1973.14  161.35
  -3  -1  -2 2120.46  184.76
   3  -1   2 2093.05  190.05
   4   0  -4    6.95    2.08
  -4   0   4    6.14    3.49
   2   0  -6  275.94   17.45
  -2   0   6  275.57   22.37
   0   1  -5  845.70   56.61
   0   1   5  873.01   59.05
   0  -1   5  773.97   48.04
   0  -1   5  996.85   81.21
   3   1  -4  769.42   50.90
  -3   1   4  876.09   59.48
  -3  -1   4  831.10   62.16
   3  -1  -4  927.46   67.43
   2   1  -5 2805.20  241.00
  -2  -1   5 2505.67  218.46
  -2   1   5 2890.18  251.86
   2  -1  -5 2874.55  254.02
  -4  -1   1 7672.75  933.63
   4   1  -1 7555.78  917.44
   4  -1  -1 8036.68  930.65
  -4   1   1 7341.46  846.99
  -5   0   1    4.88    2.37
   5   0  -1    4.19    1.43
   4   1   1  641.40   49.65
  -4   1  -1  723.54   61.04
  -4  -1  -1  667.94   51.67
   4  -1  -3 2568.32  216.29
   4   1  -3 2475.51  212.04
  -4   1   3 2617.90  216.75
  -4  -1   3 2517.89  226.67
   3   0   5  219.53   13.50
  -3   0  -5  214.65   20.28
   3   0   5  220.62   20.12
   5   0  -3 1084.36   78.38
  -5   0   3 1095.57   79.40
   1   0  -7   47.00    5.69
  -1   0   7   43.30    5.30
  -5   0  -1  957.66   64.29
   5   0   1  935.91   62.90
   2   0   6  312.58   24.90
   2   0   6  347.89   23.60
  -2   0  -6  334.48   27.90
  -1  -1   6  461.93   28.33
   1   1  -6  470.36   33.98
   1  -1  -6  477.06   32.95
  -1   1   6  492.04   32.63
   2  -1   5  435.68   24.48
   2   1   5  500.74   34.12
  -2   1  -5  368.56   19.70
  -2   1  -5  462.17   34.20
   2  -1   5  486.07   35.85
   3  -1   4    9.53    1.59
  -3   1  -4   16.74    1.96
   3   1   4   15.50    3.68
  -3  -1  -4   15.55    2.13
   3  -1   4   12.19    6.92
  -3   1  -4   17.38    8.00
  -4   0  -4  493.34   39.07
   4   0   4  462.85   31.26
   0  -2   0   30.52    7.17
   0   2   0   25.47    5.99
   0  -2   0   24.56    3.77
   0   2   0   14.77    3.04
   1   0   7 1766.74  144.70
  -1   0  -7 1572.61  126.18
   1   0   7 1830.62  151.07
   1   1   6  667.34   54.44
   1  -1   6  546.50   32.94
   1   1   6  623.85   34.76
   1  -1   6  715.32   62.53
  -1   1  -6  659.94   42.71
  -4   0   6  341.63   21.36
   4   0  -6  338.71   21.43
  -1  -2   1 1794.99  139.77
   1  -2  -1 1584.80  132.07
  -1   2   1 1752.62  133.89
  -1   2   1 1674.37  135.72
  -1  -2   1 1552.60  131.80
   1   2  -1 1469.24  114.84
   1  -2  -1 1883.94  155.11
  -4   1  -3    1.11    2.36
   4  -1   3    3.06    2.04
   4   1   3    0.52    2.77
  -4  -1  -3    0.88    1.76
   3   0  -7   14.81    3.45
  -3   0   7    7.66    5.40
   1  -2   1 1621.24  127.14
  -1   2  -1 1718.83  145.33
  -1  -2  -1 1560.01  135.52
  -1  -2  -1 1630.16  124.59
   1  -2   1 1518.27  121.80
  -1   2  -1 1404.95  107.77
   1   2   1 1404.31  110.64
   0   2   2  170.28   18.23
   0   2  -2  156.12   13.89
   0   2  -2  208.90   17.56
   0  -2  -2  142.22   13.23
   0  -2   2  171.71   15.27
   0  -2   2  177.90   23.68
   0  -2  -2  197.38   15.82
   0   2   2  184.66   13.83
   3  -1  -6  310.09   28.57
  -3  -1   6  300.62   27.20
  -3   1   6  322.92   21.43
   3   1  -6  302.87   26.94
  -5   1   2  618.31   37.41
  -5  -1   2  685.80   53.43
   5   1  -2  670.14   44.23
   5  -1  -2  709.00   42.64
  -5  -1   0  964.57   73.67
   5   1   0  939.99   63.74
  -5   1   0  785.95   45.12
  -5   1   0 1019.35   73.55
   5  -1   0  929.06   52.48
   4   1  -5 1402.05  106.75
   4  -1  -5 1442.78  116.86
  -4  -1   5 1425.60  108.91
  -4   1   5 1465.02  115.14
  -5   0   5   70.91    6.67
   5   0  -5   72.00   10.17
   5   0   3   19.83    4.18
  -5   0  -3   20.41    2.97
  -5   0  -3   16.50    4.15
  -2  -2   0  333.44   33.86
  -2   2   0  383.76   28.01
  -2  -2   0  423.90   26.68
   2  -2   0  394.58   28.33
  -2   2   0  303.59   20.98
   2   2   0  299.08   22.09
   2  -2   0  320.15   25.19
   0  -1   7 1778.46  164.33
   0   1  -7 1515.47  119.79
   0  -1   7 1475.38  116.91
   0   1   7 1610.93  141.34
  -2   2   2    0.51    1.02
  -2  -2   2   -1.14    1.73
   2   2  -2    1.05    1.32
  -2  -2   2    1.15    1.35
  -2   2   2    0.27    1.17
   1   2  -3  197.16   18.22
  -1  -2   3  224.01   20.70
  -1  -2   3  263.72   21.53
  -1   2   3  238.50   17.83
  -1   2   3  233.75   22.76
  -6   0   2   59.18    4.92
   6   0  -2   75.11    8.31
  -2   1   7  340.98   24.80
  -2  -1   7  331.69   22.37
   2  -1  -7  326.96   32.66
   2   1  -7  322.60   27.76
   0   0   8 1665.04  136.10
   0   0  -8 1937.61  155.27
  -2   0   8   56.01    6.88
   2   0  -8   57.35   10.95
  -6   0   0 1580.81  118.22
   6   0   0 1471.31  110.80
   1  -2   3  100.24   18.37
  -1  -2  -3   67.36    5.90
  -1   2  -3  102.68   11.97
   1   2   3   90.93    9.81
  -1  -2  -3  105.01   11.45
   1  -2   3   91.55    8.82
   5  -1  -4  353.17   21.38
   5   1  -4  317.10   27.86
  -5   1   4  336.79   19.34
  -5  -1   4  317.40   21.85
  -5  -1  -2  316.63   22.74
   5   1   2  296.87   20.77
  -5   1  -2  343.60   28.16
  -2   2  -2 1283.59  117.57
  -2   2  -2 1070.14   75.28
   2  -2   2 1215.27   98.48
   2   2   2 1185.65   91.94
  -2  -2  -2 1300.91  114.30
  -2  -2  -2 1430.18   97.10
  -3  -2   1  810.92   59.95
   3   2  -1  782.05   66.90
  -3   2   1  902.70   75.57
  -3   2   1  731.31   51.81
   0   2   4   75.07    6.14
   0   2   4   74.86   13.96
   0   2  -4   74.49    9.01
   0  -2   4   73.04    9.71
   0  -2   4   72.79   17.21
  -6   0   4   97.47    8.06
   6   0  -4  111.83    8.57
  -3   2  -1   81.46    5.86
   3  -2   1   80.51    7.60
  -3   2  -1   90.39   16.44
   3   2   1   79.82    9.01
   3  -2   1   76.01   16.17
  -3  -2  -1   85.69   16.22
  -3   1  -6  771.59   74.90
  -3   1  -6  799.85   50.79
  -3  -1  -6  631.66   43.26
   3  -1   6  742.64   45.96
   3   1   6  829.09   70.94
   3  -1   6  654.34   64.22
   2   2  -4 1778.57  152.29
  -2   2   4 1878.14  151.99
  -2  -2   4 1777.65  143.70
  -2   2   4 1889.19  152.63
  -6   0  -2 1776.03  139.14
   6   0   2 1623.93  128.20
  -3   0  -7  114.62   15.45
   3   0   7  107.00    9.76
   3   0   7  111.18   15.33
  -4   0  -6  623.09   53.24
   4   0   6  500.05   33.28
   4   0   6  450.77   40.10
  -3   2   3  380.90   24.01
  -3   2   3  417.21   34.39
   3   2  -3  349.56   31.67
  -3  -2   3  366.26   34.95
   2  -1   7   64.05    9.95
   2   1   7   67.25   14.71
   2   1   7   57.04    5.74
   2  -1   7   71.08    7.88
  -2   1  -7   78.14    8.80
  -2   1  -7   79.02   19.63
  -4  -1  -5  149.09   11.13
  -4   1  -5  168.30   27.16
   4  -1   5  129.77    7.64
   4   1   5  137.10   19.21
   4  -1   5  132.68   21.13
   1   1  -8  782.54   60.73
  -1  -1   8  740.54   58.84
  -1   1   8  763.22   57.39
   1  -1  -8  749.09   68.51
   6   1  -1  808.53   55.40
  -6  -1   1  884.79   70.06
  -6   1   1  697.53   43.07
   6  -1  -1  912.24   53.99
   2   0   8 2510.30  232.14
   2   0   8 2449.63  214.92
  -2   0  -8 2347.65  222.73
  -1  -2   5  166.66   12.61
   1   2  -5  169.51   16.17
  -1  -2   5  189.20   27.24
  -1   2   5   94.10   13.91
  -1   2   5  190.39   12.96
   1   0  -9  758.66   56.25
  -1   0   9  766.09   56.68
   5   0  -7   18.93    4.18
  -5   0   7   14.09    6.53
  -4   0   8  793.56   56.61
   4   0  -8  829.25   68.85
   4  -1  -7  697.26   61.86
  -4  -1   7  701.86   61.12
  -4   1   7  727.30   61.61
   4   1  -7  716.04   51.04
   6  -1  -3  989.40   68.58
  -6  -1   3  975.00   80.47
  -6   1   3  886.30   61.29
   6   1  -3  964.42   78.23
   2  -2   4  153.16   11.63
   2  -2   4  172.26   18.77
  -2   2  -4  186.84   11.23
  -2   2  -4  202.26   20.80
   2   2   4  200.31   17.42
   5   0   5    5.01    3.57
  -5   0  -5    8.15    3.17
  -6  -1  -1 1862.47  145.36
   6   1   1 1785.46  138.09
  -6   1  -1 1899.96  173.07
   6  -1   1 1415.75   95.06
  -6   1  -1 1400.89   94.65
   5  -1  -6 1556.61  132.86
  -5  -1   6 1518.32  120.52
  -5   1   6 1512.78  126.21
   5   1  -6 1399.75  111.20
  -4  -2   0  192.58   16.92
   4   2   0  178.73   15.38
  -4   2   0  175.34   10.44
  -4   2   0  217.44   27.37
  -4   2   0  172.61   12.58
   1  -1   8 1266.43  123.65
   1   1   8 1423.93  102.08
   1  -1   8 1207.54   89.94
   1   1   8 1416.51  116.54
  -1   1  -8 1287.08   95.08
   1   2   5  255.76   31.54
  -1   2  -5  281.76   29.52
   1  -2   5  229.34   23.92
   5   1   4  737.69   64.59
  -5  -1  -4  816.35   61.99
  -5   1  -4  820.93   83.12
   5  -1   4  662.14   67.65
  -3   2  -3  381.28   33.09
   3  -2   3  319.37   18.53
   3  -2   3  344.43   30.65
  -3  -2  -3  408.57   31.93
   3   2   3  377.43   28.49
  -4   2   2  122.40   18.85
  -4   2   2  118.33   10.65
  -4   2   2  130.57   12.49
  -4  -2   2  109.82   18.52
   4   2  -2  112.74   11.57
  -3  -1   8  983.16   73.49
   3   1  -8  967.53   81.12
  -3   1   8  982.71   87.16
   3  -1  -8 1007.61   93.11
  -6   0   6  198.92   20.42
   6   0  -6  193.04   14.63
  -3   0   9 2221.35  192.04
   3   0  -9 2270.17  196.68
  -7   0   1  347.76   25.20
   7   0  -1  337.09   24.92
   1   0   9    3.48    4.34
  -1   0  -9    3.65    4.60
   1   0   9    4.31    2.67
  -7   0   3 2190.95  190.45
   7   0  -3 2235.65  194.68
  -3   2   5  289.68   27.73
  -3  -2   5  269.37   29.87
   3   2  -5  260.84   19.29
   0   2   6  638.75   37.25
   0   2  -6  585.24   42.73
   0  -2   6  580.43   43.72
   0  -2   6  566.13   50.67
   0   2   6  597.27   50.76
   4  -2   2  692.12   60.55
  -4  -2  -2  853.02   80.41
   4   2   2  761.41   70.54
  -4   2  -2  884.18   73.45
   6  -1  -5  233.57   21.06
  -6  -1   5  222.95   24.80
   6   1  -5  232.93   24.87
  -6   1   5  234.58   19.70
  -6   0  -4  463.49   36.11
   6   0   4  399.38   30.06
  -4  -2   4  510.46   48.33
  -4   2   4  522.10   39.17
  -4   2   4  514.88   37.14
   4   2  -4  507.35   45.11
  -7   0  -1  694.87   47.24
   7   0   1  568.11   35.46
  -2   2   6  486.89   46.99
  -2  -2   6  453.19   31.52
   2   2  -6  434.67   36.07
   2   1  -9  287.69   27.67
   2  -1  -9  258.47   32.51
  -2   1   9  261.37   31.39
  -2  -1   9  268.13   20.86
   0   1   9 1241.89  118.78
   0   1  -9 1371.25  113.76
   0  -1   9 1370.07  133.35
   0  -1   9 1322.59  111.90
  -6   1  -3  201.66   32.09
   6   1   3  169.26   14.70
  -6  -1  -3  193.90   16.51
  -5   2   1  362.40   32.06
  -5  -2   1  337.63   27.34
  -5   2   1  300.59   17.94
   5   2  -1  333.52   35.12
  -5   2   1  289.12   19.16
   7   0  -5   17.21    6.43
  -7   0   5   15.92    6.11
  -2   0  10  941.77   73.62
   2   0 -10  944.30   74.20
  -7   1   2  386.95   23.79
   7   1  -2  392.33   34.58
  -7  -1   2  381.24   35.80
   7  -1  -2  377.29   24.42
   0   0  10    4.94    3.60
   0   0  10    2.53    5.56
   0   0 -10    5.75    3.05
   3   2   5   54.17    9.38
  -3   2  -5   50.99   19.15
   3  -2   5   53.36   10.87
  -3   2  -5   72.28    6.61
   3  -2   5   54.20    5.25
  -5  -2   3  480.51   48.71
  -5   2   3  488.07   48.92
   5   2  -3  462.37   43.76
  -5   2   3  467.78   32.61
   7  -1   0  253.58   13.35
   7   1   0  285.15   19.76
  -7   1   0  203.62   11.53
  -7  -1   0  279.36   20.09
  -1  -2   7  912.08   63.76
  -1   2   7  911.45   72.24
   1   2  -7  753.36   53.52
  -1  -2   7  895.69   95.74
  -5  -2  -1  562.63   45.72
  -5   2  -1  565.21   62.99
   5   2   1  533.24   52.00
   2  -2   6  243.64   28.86
   2  -2   6  306.22   19.99
  -2   2  -6  243.45   29.03
  -2   2  -6  320.91   20.28
   2   2   6  261.70   35.54
  -4   1  -7  443.68   42.28
   4  -1   7  427.58   27.77
   4  -1   7  358.37   44.73
  -4  -1  -7  418.87   29.63
   4   1   7  466.80   36.44
   3  -1   8  561.84   62.03
   3   1   8  465.76   38.65
   3  -1   8  716.22   49.42
   3   1   8  780.47   72.15
  -3   1  -8  666.62   59.85
  -3   1  -8  833.71   57.71
   4   2   4   38.54    7.22
  -4   2  -4   32.19    9.15
  -4  -2  -4   39.48   14.36
   4  -2   4   23.30   13.61
   4  -2   4   38.18    3.43
   5   1  -8   19.13    8.03
   5  -1  -8   17.52    4.89
  -5   1   8   16.76    4.57
  -5  -1   8   28.05    8.74
   7  -1  -4  130.88   13.28
  -7   1   4  124.02   12.17
  -7  -1   4  129.76   12.32
   7   1  -4  116.39   16.10
  -7   0  -3   63.52    8.39
  -7   0  -3   58.82   15.00
   7   0   3   52.26    8.03
   4   0   8   55.50    7.77
  -4   0  -8   62.16    9.04
   4   0   8   66.04   12.31
   5   1   6  223.53   26.66
   5  -1   6  196.88   29.65
  -5  -1  -6  215.69   18.63
  -5   1  -6  253.79   40.35
   5   0  -9  900.61   78.73
  -5   0   9  896.08   67.18
  -1   2  -7  991.57   72.25
   1   2   7  899.89   80.77
   1  -2   7  866.87   97.75
   1  -2   7  988.17   73.26
  -4   1   9  700.32   55.13
  -4  -1   9  729.37   67.41
   4  -1  -9  708.26   57.37
   4   1  -9  736.72   53.95
  -4  -2   6  485.79   48.95
   4   2  -6  448.45   32.42
  -4   2   6  483.93   42.71
  -6   0   8  280.36   21.32
   6   0  -8  292.99   29.32
  -3   0  -9  313.18   26.78
   3   0   9  324.42   32.37
   3   0   9  274.89   22.91
   5   0   7  316.15   32.49
   5   0   7  367.80   31.46
   5   0   7  326.98   33.42
  -5   0  -7  393.51   44.35
  -2   1  -9 1045.66   81.58
   2  -1   9  912.97   64.88
   2  -1   9  895.72   76.45
   2   1   9  760.40   64.75
   2   1   9  932.46   78.50
   6   1  -7  129.46   18.18
  -6  -1   7  131.44   13.66
   6  -1  -7  121.09   12.57
  -6   1   7  127.04   16.29
   3   2  -7 1322.83  102.78
  -3  -2   7 1249.38  113.66
  -3   2   7 1291.08  119.52
   1   1 -10  393.06   28.59
  -1   1  10  338.01   31.04
  -1  -1  10  373.85   28.49
   1  -1 -10  356.17   41.93
   7   1   2  193.97   16.28
  -7  -1  -2  228.88   25.14
  -7   1  -2  208.60   33.56
   4   0 -10    0.66    3.92
  -4   0  10    1.95    2.38
   8   0  -2  485.51   36.99
  -8   0   2  472.98   30.70
  -5   2   5  575.65   45.65
  -5  -2   5  600.70   47.55
   5   2  -5  570.30   52.85
   5  -2   3  115.08   16.17
  -5   2  -3  136.66   18.69
  -5  -2  -3  147.35   24.54
   5   2   3  139.69   21.46
  -8   0   0 1813.41  148.95
   8   0   0 1758.93  145.68
   6   1   5  388.73   30.16
  -6  -1  -5  375.88   30.38
   6  -1   5  341.30   32.04
  -6   1  -5  388.16   52.98
  -2   0 -10 1469.57  134.15
   2   0  10 1488.25  135.70
   2   0  10 1377.14  126.93
   6   0   6    2.45    1.78
  -6   0  -6    3.10    4.66
   7   0  -7    1.13    3.09
  -7   0   7    1.11    3.04
  -3   1  10  240.34   22.83
   3  -1 -10  230.73   32.33
  -3  -1  10  239.73   29.71
   3   1 -10  259.21   28.04
   6   2  -2  531.64   48.74
  -6   2   2  563.28   46.68
  -6  -2   2  562.52   43.24
  -6   2   2  429.79   27.62
   8   0  -4  173.97   18.77
  -8   0   4  173.90   18.59
   0   2   8  723.23   59.40
   0  -2   8  584.96   42.08
   0  -2   8  557.75   53.12
   0   2  -8  820.78   57.65
   2   2  -8  700.59   57.75
  -2   2   8  610.40   64.44
  -2  -2   8  684.45   61.77
   1   0 -11  488.46   49.23
  -1   0  11  495.03   52.55
   6   2   0    4.28    3.13
  -6   2   0    3.10    1.33
  -6  -2   0    3.36    3.54
  -6   2   0    2.16    6.85
   1   1  10   23.61    5.60
   1  -1  10   14.63   10.76
  -1   1 -10   20.89    4.45
   1   1  10    8.19   10.73
   1  -1  10   16.34    7.31
   7  -1  -6  363.06   26.11
  -7   1   6  333.72   23.52
  -7  -1   6  361.93   37.44
   7   1  -6  356.16   35.92
   0   3   1  441.11   36.05
   0  -3   1  378.76   49.49
   0  -3   1  569.55   53.50
   0  -3  -1  607.22   48.33
   0   3   1  503.65   45.66
   0   3  -1  509.75   36.63
   0  -3  -1  418.05   43.30
   1  -3   0  636.22   60.08
   1  -3   0  467.97   51.41
  -1   3   0  567.38   48.24
  -1  -3   0  539.57   53.72
   1   3   0  559.77   44.06
  -1   3   0  566.25   57.03
  -1  -3   0  579.94   61.24
   3   0 -11   61.93    9.34
  -3   0  11   59.94    9.74
  -6   2   4  422.31   32.34
   6   2  -4  504.90   48.30
  -6  -2   4  486.72   39.67
  -8   0  -2  225.21   15.30
   8   0   2  214.26   19.25
  -8  -1   1   78.75    9.24
   8  -1  -1   80.51    7.08
   8   1  -1   81.16   13.61
  -8   1   1   80.80    6.84
  -1  -3   2  190.10   27.80
   1   3  -2  185.59   21.85
   1  -3  -2  141.53   19.97
  -1   3   2  137.49   19.64
  -1  -3   2  197.82   17.89
  -1   3   2  179.36   16.26
  -8  -1   3  132.03   19.57
  -8   1   3  133.78   11.74
   8   1  -3  130.84   17.92
   8  -1  -3  128.80   12.35
  -6   2  -2  360.95   38.09
   6   2   2  359.64   30.75
  -6  -2  -2  382.09   33.82
   1   0  11  138.05   20.93
  -1   0 -11  134.45   21.81
   1   0  11  118.16   22.91
  -7   0  -5  107.04   20.42
   7   0   5   88.85   11.69
  -1  -3  -2  247.29   27.24
   1  -3   2  340.19   32.78
  -1   3  -2  321.82   44.47
   1  -3   2  475.66   40.42
  -1   3  -2  433.23   33.53
  -1  -3  -2  415.19   37.72
   1   3   2  405.13   32.72
  -3   2  -7  219.14   14.27
   3  -2   7  121.74   19.25
   3   2   7  147.83   18.61
   3  -2   7  185.94   13.21
  -3   2  -7  133.31   35.98
   2  -3  -1  583.64   58.91
  -2  -3   1  704.75   66.37
  -2   3   1  576.96   43.02
   2   3  -1  719.21   65.93
  -2  -3   1  787.43   64.12
  -2   3   1  724.45   70.81
  -4   2  -6  219.34   25.86
   4   2   6  209.56   20.03
   4  -2   6  189.98   30.85
   4  -2   6  178.87   10.24
  -7   1  -4  328.03   35.63
   7   1   4  315.61   32.69
  -7  -1  -4  353.38   36.50
   0   3  -3   68.49    9.91
   0   3   3   69.69   13.14
   0  -3   3   78.15   12.53
   0  -3  -3   40.35    5.57
   0  -3   3   61.90   16.33
   0   3   3   50.71    8.95
  -2  -3  -1  193.26   22.99
   2  -3   1  365.17   29.68
  -2  -3  -1  310.72   28.81
  -2   3  -1  226.74   16.05
  -2   3  -1  244.66   34.79
   2  -3   1  264.55   26.01
   2   3   1  286.60   31.61
   8   0  -6   10.90    5.92
  -8   0   6    9.78    6.03
  -2   2  -8   13.71   10.70
   2  -2   8   17.37   14.45
   2  -2   8   28.58    5.30
  -2   2  -8   26.69    5.59
   2   2   8   18.09   12.69
   2   1 -11  201.19   24.59
  -2  -1  11  185.22   26.49
   2  -1 -11  159.84   27.73
  -2   1  11  166.55   19.03
  -8   1  -1  240.73   14.55
  -8  -1  -1  315.38   32.97
  -8   1  -1  317.55   45.89
   8   1   1  307.53   31.07
  -1  -2   9    8.50    5.84
  -1  -2   9    6.88    9.04
  -1   2   9    3.18    7.97
   1   2  -9    6.87    4.85
   5  -2  -7  856.67   71.15
  -5   2   7  869.52   69.49
   5   2  -7  898.87   83.29
  -5  -2   7  859.69   85.23
  -4  -2   8   90.79   19.60
  -4   2   8   83.50   12.17
   4   2  -8   93.79   16.08
  -5   2  -5  212.67   41.71
   5  -2   5  193.52   24.37
   5   2   5  237.02   23.05
  -5  -2  -5  280.00   29.11
   0   1 -11   75.10   13.19
   0  -1  11   68.87   14.27
   0  -1  11   53.17   11.52
   0   1  11   63.98   18.44
  -2   3   3  698.19   63.97
  -2  -3   3  653.72   67.68
   2   3  -3  673.10   58.84
  -2  -3   3  721.00   57.10
  -2   3   3  528.21   53.90
  -6   1   9  103.80   12.61
   6   1  -9  118.72   12.69
  -6  -1   9  123.06   13.94
   6  -1  -9  112.86   20.04
  -8   1   5  184.46   17.97
   8   1  -5  188.51   23.88
   8  -1  -5  189.00   14.49
  -8  -1   5  193.66   26.07
   1   3  -4   43.47    6.21
  -1   3   4   40.24    7.78
  -1   3   4   30.33    8.29
  -1  -3   4   29.56   15.32
  -1  -3   4   45.07    7.14
   3  -3   0  431.72   39.52
  -3  -3   0  592.67   65.91
   3   3   0  537.02   52.19
  -3  -3   0  563.40   49.24
  -3   3   0  436.59   34.34
  -3   3   0  422.48   40.52
  -5  -1  10  194.12   27.11
   5   1 -10  206.80   18.24
  -5   1  10  189.72   19.25
   5  -1 -10  173.94   26.62
   4   1   9  250.76   22.00
   4   1   9  367.87   34.02
   4   1   9  415.09   47.44
  -4   1  -9  411.68   31.54
  -4   1  -9  297.38   51.52
   4  -1   9  318.42   31.80
   4  -1   9  356.04   26.91
  -3  -3   2  116.93   23.24
   3   3  -2  101.64   18.30
  -3  -3   2  113.36   20.83
  -3   3   2  103.74   20.60
  -3   3   2   77.40   14.04
   5   1   8  183.10   25.47
  -5  -1  -8  142.80   14.92
  -5   1  -8  145.83   21.61
   5  -1   8  137.01   25.72
   5  -1   8  140.99   12.37
   6   2  -6  129.68   19.98
   6  -2  -6  125.26   18.55
  -6  -2   6  128.39   24.69
  -6   2   6  114.60   16.35
   6   0 -10   88.97   17.14
  -6   0  10   77.76   16.92
  -3  -2   9   25.09   11.34
  -3   2   9   22.09    6.75
   3   2  -9   24.91    5.58
   7   2  -1  955.18   78.29
  -7  -2   1  998.42   83.00
  -7   2   1  942.97  104.09
  -2   3  -3  195.52   14.95
   2  -3   3  184.31   13.49
   2   3   3  168.15   25.22
  -2  -3  -3  201.57   35.18
  -2  -3  -3  114.71   13.04
  -2   3  -3  143.64   31.51
   2  -3   3  124.53   18.03
   1  -2   9   79.70   14.78
  -1   2  -9  122.85   12.20
   1   2   9   82.56   13.80
   1  -2   9   71.62    7.71
   1  -3   4  545.53   35.86
   1  -3   4  360.66   40.34
  -1   3  -4  393.29   46.10
  -1   3  -4  548.78   39.50
   1   3   4  377.64   37.67
   2   0 -12  210.16   20.97
  -2   0  12  218.91   23.11
   7  -1  -8  197.48   26.47
  -7  -1   8  207.49   20.26
  -7   1   8  179.73   23.62
   7   1  -8  208.03   18.37
   7   2  -3   93.85   11.29
  -7   2   3   89.71   14.34
  -7   2   3   75.40    7.73
  -7  -2   3  100.42   13.13
   3  -1  10   14.01    9.94
   3   1  10    7.92    6.12
  -3   1 -10   12.84    7.66
   3   1  10   12.59    4.16
   3  -1  10   10.00    5.33
  -3   1 -10   12.51    3.63
  -7   0   9  176.65   24.70
   7   0  -9  166.40   23.50
  -9   0   1  422.86   33.98
   9   0  -1  388.56   31.15
  -5   0  11    4.86    6.40
   9   0  -3  241.54   22.58
  -9   0   3  243.51   23.70
   3  -3   2    3.43    5.87
   3  -3   2    5.19    2.91
  -3  -3  -2    4.61    6.93
  -3   3  -2    1.32    4.13
  -3   3  -2    2.01    1.39
  -3  -3  -2    5.00    3.11
   3   3   2    2.72    2.97
   0   0  12   76.64   19.83
   0   0 -12   82.55   18.61
   0   0  12   85.20   13.45
  -8   0  -4   22.65   13.11
  -8   0  -4   29.01    4.82
   8   0   4   25.43    6.60
  -6   2  -4  161.65   34.50
   6  -2   4  113.19   28.31
   6   2   4  156.57   25.01
  -6  -2  -4  172.62   20.29
   6   1   7  302.76   25.33
   6  -1   7  188.68   14.75
   6  -1   7  257.43   19.96
   6  -1   7  216.46   23.37
  -6  -1  -7  317.12   25.46
  -6   1  -7  357.48   52.28
   4   1 -11   70.13   14.63
   4  -1 -11   55.29   10.36
  -4  -1  11   66.81   10.53
  -4   1  11   50.91   10.25
   5   0   9  592.06   45.29
  -5   0  -9  583.59   61.75
   5   0   9  419.66   47.15
   7   2   1  422.54   46.50
  -7   2  -1  425.60   61.62
  -7  -2  -1  460.81   41.43
   4   0  10    3.23    4.49
  -4   0 -10    3.88    5.87
   4   0  10    1.40    4.45
   0  -3   5   42.10    9.82
   0   3   5   25.08    5.54
   0   3   5   23.74    7.37
   0   3  -5   42.38    8.31
   0  -3   5   23.72   14.40
  -8  -1  -3  138.41   14.55
   8   1   3  124.14   18.82
  -8   1  -3  130.27   21.35
  -3  -3   4  152.26   17.52
  -3   3   4  117.64   13.92
  -3  -3   4  171.40   21.40
   3   3  -4  149.00   21.46
  -3   3   4  144.15   20.52
  -3   3   4  156.00   15.69
   6   0   8    4.51    4.33
  -6   0  -8    3.07    6.05
   6   0   8    4.53    4.24
  -2   3   5  357.62   26.65
   2   3  -5  400.84   30.40
  -2  -3   5  418.06   33.54
  -2   3   5  342.72   31.36
  -2  -3   5  271.34   45.42
  -4  -3   1  131.40   26.07
  -4   3   1   94.74   12.11
   4   3  -1  127.76   14.63
  -4   3   1  108.60   24.22
   9   0   1 1322.91  109.74
  -9   0  -1 1446.96  118.52
  -2   1 -11  245.38   19.54
   2   1  11  179.74   22.73
   2  -1  11  203.62   17.83
   2  -1  11  137.67   30.50
   2   1  11  176.34   18.71
   3   0  11  472.15   53.60
   3   0  11  543.05   56.30
   9   0  -5   37.88    9.05
  -9   0   5   30.36    5.75
   8   0  -8  617.48   56.65
  -8   0   8  584.04   45.06
  -7   2   5  963.30   77.68
   7  -2  -5  858.73   76.28
   7   2  -5 1071.38   86.50
  -7  -2   5 1190.90  115.18
  -4  -3  -1   27.68    8.99
   4  -3   1   21.11    7.49
  -4  -3  -1   31.41    9.15
   4   3   1   33.93    7.10
  -4   3  -1   24.57    4.79
  -4   3  -1    8.39   14.41
  -2  -2  10  300.30   34.10
  -2  -2  10  209.05   31.14
   2   2 -10  317.21   30.23
  -2   2  10  225.75   37.14
   4   0 -12  570.98   59.75
  -4   0  12  523.75   57.47
   4   3  -3  198.71   18.37
  -4   3   3  154.47   20.47
  -4   3   3  194.55   20.75
  -4   3   3  188.81   20.19
  -4  -3   3  212.54   33.84
   8   1  -7  587.03   45.26
  -8  -1   7  604.88   61.09
   8  -1  -7  582.69   45.55
  -8   1   7  573.18   42.81
   0  -2  10    6.91    5.64
   0   2  10    3.28    5.41
   0  -2  10   11.37    5.47
   0   2 -10    6.37    2.93
   1  -1 -12  647.53   75.94
  -1   1  12  672.61   77.90
  -1  -1  12  676.87   67.67
  -1  -1  12  827.56   79.69
   1   1 -12  845.64   64.76
   7   1   6  187.72   18.37
  -7  -1  -6  193.53   21.45
  -7   1  -6  181.74   26.43
  -9  -1   2  197.67   18.68
   9   1  -2  213.51   17.79
  -9   1   2  202.85   15.32
   9  -1  -2  189.31   15.35
  -1  -3   6  364.01   56.65
  -1   3   6  500.62   39.28
  -1   3   6  376.15   49.65
  -1  -3   6  579.34   52.72
   1   3  -6  573.15   46.88
   2   3   5  625.52   62.38
  -2   3  -5  646.64   91.13
  -2   3  -5  887.60   60.77
   2  -3   5 1002.81   70.11
   2  -3   5  573.69   59.72
  -7   0  -7  805.37   62.39
   7   0   7  487.74   46.47
   7   0   7  490.80   37.01
   3   3   4   76.94   17.55
   3  -3   4   57.42   19.99
  -3   3  -4   60.78   14.38
  -3  -3  -4   53.48    6.00
  -3  -3  -4   81.10   15.53
   3  -3   4   95.93    9.70
  -3   3  -4   59.76    6.94
  -3   1  12    2.11    6.79
   3   1 -12    1.42    5.71
   3  -1 -12    4.44    4.04
  -3  -1  12    5.36    3.85
  -9   1   0  640.70   41.94
   9   1   0  694.66   53.05
  -9  -1   0  759.65   70.69
   9  -1   0  701.64   45.00
  -7   2  -3   70.67   15.58
  -7  -2  -3   82.14   12.95
   7   2   3   56.52   10.76
   9   1  -4    8.56    3.64
  -9   1   4    9.72    4.04
   9  -1  -4    8.29    4.27
  -9  -1   4    8.00    4.48
   4   2   8    0.99    3.30
   4  -2   8    2.02    1.72
  -4   2  -8    3.53    7.92
   4  -2   8    1.85    3.83
  -4   2  -8    2.84    1.98
  -5   2   9   42.23   13.89
   5  -2  -9   34.21    9.23
   5   2  -9   51.64   13.12
  -5  -2   9   53.85   10.28
   1  -3   6  289.83   25.54
   1   3   6  175.04   23.07
  -1   3  -6  271.76   21.78
   1  -3   6  185.10   41.11
   2   0  12  182.29   28.44
   2   0  12  206.04   33.09
  -2   0 -12  254.77   31.50
  -6   2   8   55.25   14.36
  -6  -2   8   63.90   11.39
   6  -2  -8   57.37   14.94
   6   2  -8   69.09   15.91
  -3   2  -9  114.35   25.86
   3  -2   9  162.72   13.93
  -3   2  -9  188.87   15.41
   3  -2   9  109.84   29.04
   3   2   9   96.79   17.50
  -5   2  -7  185.46   12.47
  -5   2  -7  138.58   23.56
   5  -2   7  169.11   10.82
   5   2   7  123.94   25.30
   5  -2   7  123.62   28.64
  -5  -2  -7  112.35    8.20
  -4   3  -3  155.71   13.60
  -4  -3  -3  124.69   13.00
   4   3   3  148.88   25.26
   4  -3   3  107.93   18.99
  -4  -3  -3  160.64   21.59
   4  -3   3  189.10   17.01
  -4   3  -3  128.70   34.04
   1  -1  12    1.72    6.70
  -1   1 -12    2.75    2.82
   1   1  12    3.92    3.56
   1   1  12    1.37    7.07
   1  -1  12    6.53    5.00
   1   0 -13   79.36   12.49
  -1   0  13   81.22   21.39
  -3  -3   6   22.47    9.73
  -3  -3   6   22.36   12.96
   3   3  -6   34.57    9.64
  -3   3   6   11.64   10.14
  -3   3   6   31.11    6.97
  -3   3   6   26.44    5.12
   9   0   3  171.20   18.75
  -9   0  -3  174.26   25.02
  -9   0  -3  197.25   19.84
  -5  -3   2  531.02   60.44
   5   3  -2  513.52   41.81
  -5   3   2  480.23   46.64
  -5   3   2  330.01   32.52
  -5   3   2  424.28   34.24
  -4  -2  10  411.79   37.01
   4   2 -10  403.83   42.00
  -4   2  10  301.60   45.94
  -8   2   2   69.29    6.37
  -8   2   2  104.16   25.05
   8   2  -2   91.03   17.40
  -8  -2   2   98.68   20.50
  -5   3   0  278.51   20.91
  -5  -3   0  397.32   37.16
   5   3   0  393.43   41.60
  -5   3   0  358.70   36.38
  -5   3   0  251.91   19.61
  -4   3   5  126.00   20.51
  -4   3   5  112.46   14.05
  -4   3   5   95.80   18.00
   4   3  -5  137.92   22.05
  -4  -3   5  150.55   18.03
   9   0  -7   84.40    9.97
  -9   0   7   97.62   17.29
   8   2   0  208.92   28.60
  -8  -2   0  198.27   22.18
  -8   2   0  187.52   27.04
  -3   0  13  185.69   21.58
   3   0 -13  173.99   29.14
   2   2  10  345.23   38.26
   2  -2  10  353.02   53.10
   2   2  10  364.09   39.20
   2  -2  10  433.99   33.16
   6   2   6   27.04    7.19
  -6   2  -6   18.36   18.04
   6  -2   6   19.62    8.14
  -6  -2  -6   26.36    4.33
   0   3   7   73.74   21.48
   0   3   7   73.66    6.79
   0   3  -7   99.17    9.32
   0  -3   7  132.19   17.09
   0  -3   7   81.04   26.30
  -8  -1  -5  125.15   16.14
  -8   1  -5  114.63   34.16
   8   1   5  116.19   13.41
  -8  -1  -5  107.62   18.30
  -7  -2   7   44.08    9.31
   7   2  -7   42.21   12.17
  -7   2   7   29.77    6.10
   7  -2  -7   25.03    6.76
   9   1   2   53.31   12.10
  -9   1  -2   53.57   13.37
   9  -1   2   41.70    5.48
  -9  -1  -2   47.40    8.40
  -9   1  -2   39.17    4.35
   8   0   6    1.12    2.74
  -8   0  -6    3.11    5.38
   8   2  -4  530.93   42.60
  -8  -2   4  537.71   60.13
   8  -2  -4  384.06   33.86
  -8   2   4  410.85   31.95
  -2  -3   7  128.45   22.04
  -2   3   7   63.92   19.70
   2   3  -7  103.61   10.39
  -2  -3   7   87.05   16.61
  -2   3   7   92.05   22.27
  -2   3   7  104.71   13.41
   6  -1 -11  565.15   52.10
  -6   1  11  617.56   54.63
   6   1 -11  742.01   69.12
  -6  -1  11  686.86   55.42
   7  -1 -10  363.74   45.19
  -7  -1  10  443.15   37.18
  -7   1  10  388.69   35.14
   7   1 -10  441.83   46.61
   9  -1  -6   85.09    9.43
   9   1  -6   84.30   16.95
  -9  -1   6   89.34   19.48
  -9   1   6   68.47   12.16
   1   2 -11  901.71   65.39
  -1   2  11  633.02   81.86
  -1  -2  11  598.05   65.66
  -1  -2  11  891.14   80.22
  -5   3   4   81.84   13.40
  -5  -3   4   97.21   15.36
   5   3  -4  102.92   12.91
  -5   3   4   89.80   20.62
  -5   3   4   76.14   14.42
  -5  -3  -2  137.81   20.25
  -5   3  -2  143.58   36.97
   5   3   2  131.98   16.92
   5  -3   2   85.54   26.27
  10   0  -2  592.02   42.79
 -10   0   2  642.19   53.59
   1   0  13   66.90   12.24
   1   0  13   92.33   22.79
  -1   0 -13   93.97   13.34
  -7   0  11  519.01   44.77
   7   0 -11  558.29   59.42
  -3  -2  11  570.16   62.43
  -3   2  11  423.23   46.69
   3   2 -11  596.97   56.24
   5   1 -12   52.50   14.17
  -5  -1  12   50.82    9.80
  -5   1  12   35.88    9.23
   5  -1 -12   34.76    9.20
   6   0 -12  216.26   32.05
  -6   0  12  220.33   23.04
  10   0  -4   89.38   14.60
 -10   0   4   89.70   10.05
   2   1 -13  286.71   25.57
  -2   1  13  198.91   26.38
  -2  -1  13  273.11   27.31
   2  -1 -13  215.02   26.15
  -8  -1   9  115.32   15.31
   8   1  -9  112.57   20.85
  -8   1   9  105.15   13.14
   8  -1  -9  104.21   20.04
   8   2   2  140.40   16.50
  -8  -2  -2  137.95   18.97
  -8   2  -2  127.59   22.72
  10   0   0  255.70   24.76
 -10   0   0  285.54   26.50
  -5   1 -10   22.04   16.04
   5   1  10   16.66    7.63
  -5  -1 -10   24.35    6.99
   5  -1  10   14.26    5.62
   5  -1  10   21.08    7.12
   5   1  10   17.34   10.53
   3   3   6   58.22   13.65
   3  -3   6   55.94   14.92
  -3   3  -6   94.76    8.59
   3  -3   6   82.42    9.20
  -3   3  -6   60.34   17.53
   8   0 -10    1.60    2.24
  -8   0  10   -2.09    4.15
  -1   2 -11  117.52    9.90
   1   2  11   74.58   15.89
   1  -2  11   66.16   15.66
   1  -2  11   74.44    8.94
   1   2  11   60.71    5.16
  -7   2  -5  251.13   49.89
   7   2   5  244.78   34.40
   7  -2   5  172.72   25.91
  -7  -2  -5  261.03   30.79
  -4   1 -11   57.47   10.36
  -4   1 -11   37.41   13.78
   4  -1  11   28.82    5.72
   4   1  11   32.33    7.59
   4  -1  11   32.77   15.15
   4   1  11   35.83   11.26
   6  -1   9  263.18   39.39
   6  -1   9  214.83   19.52
  -6  -1  -9  278.29   20.95
  -6   1  -9  300.26   36.58
   6   1   9  294.44   27.61
   0  -1  13  151.77   23.39
   0   1 -13  237.09   29.87
   0   1  13  198.62   19.27
   0   1  13  147.91   36.19
   0  -1  13  205.32   22.45
  -2   3  -7  185.63   15.91
   2  -3   7  117.15   36.28
   2   3   7   98.85   18.81
  -2   3  -7  128.80   27.21
   2  -3   7  185.99   16.62
   4  -3   5  270.59   18.58
   4   3   5  219.26   34.46
  -4   3  -5  220.14   13.85
   4  -3   5  170.31   25.72
  -4  -3  -5   81.13   26.67
  -4   3  -5  181.79   44.34
  -1  -3   8   26.64   10.65
   1   3  -8   45.25    9.80
  -1  -3   8   47.41   12.54
  -1   3   8   23.24   14.33
  -1   3   8   33.07    7.18
  -1   3   8   17.43   15.62
   6   3  -1  120.40   21.46
  -6   3   1   62.44   10.22
  -6  -3   1  135.11   16.97
  -6   3   1   70.52    8.70
  -6   3   1  111.43   18.43
   8   2  -6  331.69   38.76
   8  -2  -6  258.56   31.31
  -8   2   6  294.84   28.25
  -8  -2   6  367.94   34.12
  -5   0  13  167.19   29.52
   5   0 -13  174.32   28.49
   4   3  -7   48.69   11.71
  -4   3   7   26.85    8.00
  -4  -3   7   56.95   16.61
  -4   3   7   12.57   12.57
  -4   3   7   39.51   10.81
  -6  -3   3  306.07   43.46
  -6   3   3  190.59   16.75
  -6   3   3  265.93   30.81
  -6   3   3  197.95   20.38
   6   3  -3  277.99   25.63
  -3   1 -12   55.25   11.91
   3   1  12   27.00    8.20
   3  -1  12   39.95   10.64
   3   1  12   26.85   10.74
   3  -1  12   34.11   10.83
   7  -1   8   22.71    4.83
  -7   1  -8   32.56   18.41
   7   1   8   33.01   11.88
  -7  -1  -8   35.94    9.81
   7  -1   8   25.98    5.95
   7  -1   8   27.48    8.23
  -6   3  -1   14.21    3.30
  -6  -3  -1   32.29    8.56
  -6   3  -1   16.23    9.18
   6   3   1   33.79    6.90
  -6   3  -1   13.63    3.10
  -5   0 -11   34.10   13.93
   5   0  11   18.91    9.94
   5   0  11   17.81   10.24
 -10   1   3   96.09   11.06
  10  -1  -3  108.87   12.21
 -10  -1   3  108.12   20.95
  10   1  -3   98.32   17.94
   9   0   5    6.21    4.61
  -9   0  -5   11.39    6.22
  -5  -3   6  113.06   24.21
  -5   3   6   97.65   18.25
  -5   3   6   52.55   10.96
  -5   3   6   54.82   14.74
   5   3  -6  114.75   18.83
   4  -1 -13  498.91   66.12
  -4  -1  13  602.79   66.55
  -4   1  13  480.11   63.93
   4   1 -13  680.27   67.86
 -10  -1   1   63.99   16.04
  10   1  -1   61.54   14.59
  10  -1  -1   64.11    7.77
 -10   1   1   68.05    9.97
  -9  -1  -4    3.61    2.40
   9  -1   4    0.69    1.05
  -9   1  -4   -0.93    6.87
   9   1   4    0.74    3.34
   6   0  10  676.79   56.61
  -6   0 -10  765.74   80.60
   6   0  10  561.26   48.07
   6   0  10  699.34   67.12
 -10   0   6   69.48   15.01
  10   0  -6   69.85    8.92
   1  -3   8  182.07   14.57
   1  -3   8  130.42   22.63
  -1   3  -8  224.39   19.48
   1   3   8  116.76   20.50
  -5   3  -4  100.59   32.30
  -5  -3  -4  127.05   31.34
  -5   3  -4   91.27    7.64
  -5  -3  -4  147.56   12.36
   5  -3   4   85.72   28.28
   5   3   4  121.77   24.38
   3   3  -8  246.32   28.48
  -3  -3   8  170.38   28.85
  -3   3   8  182.24   24.63
  -3   3   8  232.91   23.51
  -3   3   8  120.88   21.40
  -3  -3   8  249.76   24.57
  -2   0  14  825.14   92.90
   2   0 -14  772.10   85.73
  10   0   2   24.90    4.66
 -10   0  -2   38.04    7.91
   9   0  -9   57.40    9.14
  -9   0   9   50.22   14.89
   9  -1  -8  399.49   35.56
  -9   1   8  436.76   45.15
   9   1  -8  458.84   37.57
  -9  -1   8  465.67   53.80
   4   0  12    7.66    8.53
   4   0  12   10.18    4.75
  -6   2  10  163.07   30.87
  -6  -2  10  240.28   25.48
   6  -2 -10  169.50   22.63
   6   2 -10  241.48   22.47
  -2   2  12    8.20   12.15
   2   2 -12   19.95    5.32
  -2  -2  12    9.11    9.46
  -2  -2  12   14.99   10.81
   7   0   9    0.68    1.79
   7   0   9    0.53    1.86
  -7   0  -9    1.31    2.69
   0   0  14  235.70   29.26
   0   0 -14  239.22   27.28
   0   0  14  193.66   34.08
   7   2  -9  208.23   20.58
  -7  -2   9  207.75   22.84
   7  -2  -9  162.71   28.41
  -7   2   9  154.42   27.25
  -9  -2   1  463.00   52.76
  -9   2   1  413.46   43.70
  -9   2   1  283.97   17.77
   9   2  -1  429.56   34.70
  -5   2  11   26.80    9.39
   5  -2 -11   27.88   14.26
  -5  -2  11   40.62   10.22
   5   2 -11   38.64    8.38
  -9   2   3   15.43    3.83
  -9   2   3   14.63    9.30
   9  -2  -3   20.47    4.93
  -9  -2   3   27.04   12.37
   9   2  -3   21.55   10.70
 -10  -1   5  372.99   33.91
 -10   1   5  359.69   33.11
  10  -1  -5  372.45   34.28
  10   1  -5  348.69   30.42
   0  -2  12  278.03   23.78
   0   2  12  208.46   15.57
   0   2  12  220.95   30.05
   0   2 -12  391.43   35.35
   0  -2  12  231.76   31.13
  -6   3   5   50.83   12.06
  -6   3   5   58.07    9.79
  -6  -3   5   75.67   14.31
   6   3  -5   77.51   11.71
  -6   3   5   63.12   20.08
 -10  -1  -1   24.87    6.35
  10   1   1    9.54    4.94
 -10   1  -1   14.41   16.25
 -10   1  -1   23.26    4.80
   8   2   4   15.43   13.13
  -8  -2  -4   45.48   10.26
  -8   2  -4   12.58   20.65
  -5   2  -9  202.93   15.60
   5  -2   9  155.38   11.86
  -5   2  -9  206.40   45.99
   5   2   9  172.21   32.39
   5  -2   9  187.58   23.82
   4  -2  10   50.24   21.38
  -4   2 -10   54.98   31.13
   4   2  10   42.85   13.81
   4   2  10   46.05   18.80
  -4   2 -10   62.23    9.49
   4  -2  10   61.14    7.80
   2   1  13  176.05   22.79
   2   1  13  167.04   26.23
  -2   1 -13  266.80   32.42
   2  -1  13  225.95   22.66
   2  -1  13  175.31   36.04
   8  -1   7   38.14    8.34
  -8   1  -7   78.65   26.65
  -8  -1  -7  100.58   14.39
   8   1   7   71.20   15.62
   8  -1   7   48.96    7.96
   4   0 -14   29.27   13.80
  -4   0  14   26.81   14.20
  -2   3   9  230.98   20.49
  -2   3   9  158.29   26.04
  -2  -3   9  286.67   25.79
   2   3  -9  282.88   21.46
  -2  -3   9  181.98   29.33
  -2   3   9  191.03   28.51
   3   0  13  104.87   16.93
   3   0  13  112.74   23.89
   0  -3   9  103.25   11.50
   0  -3   9   67.48   17.47
   0   3  -9   96.59    9.57
   0   3   9   56.66   25.32
   0   3   9   57.95   14.90
  -6   3  -3   67.51   17.77
  -6  -3  -3   55.86   22.94
   6   3   3   63.35   18.21
   6  -3   3   40.62   13.10
   6   2   8  418.16   52.26
  -6  -2  -8  324.52   24.51
   6  -2   8  348.63   38.43
  -6   2  -8  381.74   47.98
  -9  -2  -1   57.66   12.80
  -9   2  -1   19.65   24.52
   9   2   1   60.31   16.08
   3   2  11  102.11   21.39
   3   2  11   83.77   19.94
  -3   2 -11  187.83   18.80
   3  -2  11  160.26   16.74
   3  -2  11  121.84   34.96
  -9   2   5   25.46    6.85
   9  -2  -5   24.04    8.49
  -9  -2   5   33.51    9.32
   9   2  -5   36.26    7.94
  -1   1  14   19.85   17.80
   1   1 -14   42.45    9.30
   1  -1 -14   34.80   16.56
  -1  -1  14   40.22   16.80
  -1  -1  14   45.47   12.51
  -8  -2   8  356.77   34.02
   8   2  -8  365.82   31.48
   8  -2  -8  263.36   35.80
  -8   2   8  256.85   24.97
  -8   0  -8   75.76   23.19
   8   0   8   67.30   12.85
   8   0   8   60.60   13.30
  -4   2  12  329.01   39.68
   4  -2 -12  332.70   39.16
  -4  -2  12  509.08   59.56
   4   2 -12  508.43   40.05
  -7   3   2  169.08   18.13
   7   3  -2  267.22   34.35
  -7  -3   2  290.91   41.98
  -7   3   2  152.89   16.11
  -7   3   2  237.55   31.68
  -3   1  14  181.34   36.48
  -3  -1  14  240.53   38.20
   3  -1 -14  175.39   37.39
   3   1 -14  257.17   34.44
  -7   3   0   38.02   13.64
   7   3   0   51.21   10.44
  -7  -3   0   37.43   12.75
 -10   0   8   34.74    8.29
  10   0  -8   34.82   11.84
  -7  -1  12  166.86   28.69
   7   1 -12  168.33   18.56
  -7   1  12  124.94   28.25
   7  -1 -12  132.67   19.00
  -4   3  -7  135.59   11.54
  -4   3  -7  152.98   42.39
   4   3   7  122.81   20.91
   4  -3   7  182.90   13.41
  -3   3  -8  486.42   33.07
   3  -3   8  478.76   33.53
  -3   3  -8  314.98   49.74
   3   3   8  231.17   35.07
   7  -2   7   10.04   10.52
  -7  -2  -7   11.37    3.77
   7   2   7    4.44    5.39
  -7   2  -7   10.97    8.56
  11   0  -3   46.72    6.86
 -11   0   3   51.38    7.50
 -10   0  -4  167.41   26.52
 -10   0  -4  152.51   14.61
  10   0   4  162.36   19.87
   8   1 -11  215.16   22.22
  -8   1  11  199.27   33.43
   8  -1 -11  175.05   22.96
  -8  -1  11  212.14   23.19
 -10  -1   7   87.53   20.99
 -10   1   7   72.92   14.56
  10  -1  -7   84.60   16.62
  10   1  -7   90.11   18.54
  -5   3   8   95.32   24.39
  -5  -3   8  193.20   23.48
  -5   3   8  167.03   24.48
   5   3  -8  162.69   17.11
  -7  -3   4  353.54   35.66
  -7   3   4  240.07   24.41
  -7   3   4  236.61   27.51
  -7   3   4  311.48   37.69
   7   3  -4  351.31   32.84
 -11   0   1    1.77    3.24
  11   0  -1    1.44    3.00
   6  -1 -13  161.72   32.32
  -6   1  13  166.37   22.60
   6   1 -13  232.71   31.94
  -6  -1  13  223.86   34.81
  10   1   3  221.95   27.10
  10  -1   3  155.92   13.52
 -10   1  -3  208.09   31.91
 -10  -1  -3  182.00   19.24
  -5   3  -6   16.33   26.46
  -5   3  -6   36.55    4.32
   5  -3   6   83.87    7.92
   5  -3   6   80.04   22.67
   5   3   6   46.15   18.53
   0   4   0    2.78    6.48
   0  -4   0    7.44    7.21
   0  -4   0    9.75    5.83
   2   0  14   33.28   11.87
  -2   0 -14   46.41   10.45
   2   0  14   39.01   14.34
  -2   2 -12  119.64   17.20
   2   2  12   55.58   18.18
   2  -2  12  108.09   16.92
   2  -2  12   65.71   16.95
   4   3  -9   62.25   10.34
  -4   3   9   24.48   18.73
  -4  -3   9   68.92   21.77
  -4   3   9   63.07   12.48
  -2   3  -9  163.51   16.32
   2  -3   9  103.23   23.93
   2  -3   9  170.38   17.28
   2   3   9   95.06   19.88
  -6   3   7  105.82   23.16
   6   3  -7  208.60   30.02
  -6   3   7  172.81   28.05
  -6  -3   7  202.11   24.45
   1  -1  14  334.40   44.18
   1   1  14  244.32   35.45
  -1   1 -14  332.98   31.19
   1   1  14  289.45   34.41
   1  -1  14  249.95   48.10
   9  -1   6   59.40    9.01
   9  -1   6   64.02    6.73
   9   1   6  125.96   12.97
  -9  -1  -6   99.71   13.45
  -9   1  -6  112.94   33.41
   1  -4  -1   58.55   18.29
  -1   4   1   88.98   21.97
  -1   4   1   79.91   17.42
  -1  -4   1   90.01   26.22
  -1  -4   1   64.25   19.25
   1   4  -1   96.27   13.16
   1  -4  -1   76.05   16.81
  -1  -4  -1   44.12   14.84
  -1   4  -1   62.71   14.53
  -1   4  -1   74.89   14.76
   1  -4   1   58.38   19.18
  -1  -4  -1   63.74   15.70
   1   4   1   60.53   11.44
   1  -4   1   43.90   17.80
  -8   0  12   30.88   14.88
   8   0 -12   29.42    8.38
  -1   3  10   30.72   11.97
  -1  -3  10   64.39   15.60
  -1  -3  10   33.80   13.21
  -1   3  10   43.03    5.54
  -1   3  10   29.66   20.60
   1   3 -10   61.44   12.12
  -7   0  13   82.89   13.79
   7   0 -13   80.93   20.75
  -7  -3  -2   54.91   23.86
   7   3   2   59.63   11.85
  -7   3  -2   56.83   16.46
  11   0  -5    0.23    3.09
 -11   0   5   -1.05    2.03
   0  -4   2  114.68   23.87
   0  -4  -2   54.50   18.44
   0  -4   2   66.14   13.50
   0   4   2   87.39   13.21
   0  -4  -2   63.72   16.28
   0   4  -2  124.58   17.84
  -1   2  13   10.32    9.92
  -1  -2  13   34.36    7.75
  -1  -2  13   23.21   11.26
   1   2 -13   37.94   11.21
  -9  -2  -3   10.01    5.38
   9   2   3    3.18    4.37
  -9   2  -3    0.76   12.03
   1   0 -15   39.07   16.77
  -1   0  15   31.20   10.84
  -1   0  15   40.37   11.51
   9   0   7  265.36   29.19
  -9   0  -7  327.61   40.44
  -9   1  10  351.02   33.81
  -9  -1  10  388.34   51.56
   9   1 -10  388.12   34.15
   9  -1 -10  305.61   44.01
   9   2  -7  233.46   33.14
  -9   2   7  180.35   23.77
   9  -2  -7  160.61   18.95
  -9  -2   7  225.09   25.79
  -2   4   0  211.36   28.30
   2  -4   0  181.59   36.66
  -2   4   0  262.94   29.68
   2   4   0  249.12   27.10
  -2  -4   0  255.75   34.24
  -2  -4   0  215.66   35.46
  -3   0  15  250.48   29.44
   3   0 -15  223.02   26.65
 -11   0  -1  545.88   48.06
  11   0   1  451.87   41.53
   3   2 -13  100.91   13.59
  -3   2  13   66.64   25.52
  -3  -2  13  105.70   25.51
  -6   3  -5   12.13   19.40
   6   3   5   12.82   13.20
   6  -3   5   21.73    9.21
  -6  -3  -5   27.33   11.18
   2   4  -2  127.10   15.32
  -2   4   2   93.33   21.50
  -2  -4   2  135.65   31.53
  -2  -4   2   81.04   14.72
  -2   4   2   91.07   18.31
   2  -4  -2   75.58   12.88
  -3   3  10    9.62    8.73
  -3  -3  10   35.31   14.66
  -3  -3  10   20.19   12.15
   3   3 -10   36.27   10.54
  -3   3  10   24.31    7.07
  -1  -4   3  109.58   17.51
  -1   4   3   65.35   12.35
  -1   4   3   62.66   16.84
  -1  -4   3   79.74   24.97
   1   4  -3   95.54   17.78
   9   0 -11   23.79    7.19
  -9   0  11   26.03   12.47
   8   2   6  120.64   26.94
  -8   2  -6  162.96   48.08
  -8  -2  -6  141.36   15.89
   5  -1 -14  228.23   40.58
  -5  -1  14  317.68   45.73
  -5   1  14  231.60   29.32
   5   1 -14  351.71   43.73
 -11   1   2   65.34    9.60
  11  -1  -2   88.25   10.68
 -11  -1   2   78.27   11.95
  11   1  -2   70.37   10.82
  -6   0  14  440.26   42.95
   6   0 -14  394.11   52.09
   6   1  11    5.35    8.87
   6   1  11    6.06    7.13
   6  -1  11    3.05    2.26
   6  -1  11    6.42    4.82
  -6   1 -11    7.30   11.09
  -6  -1 -11    5.14    5.17
   1   3  10   11.87   19.26
   1   3  10   22.31   10.83
   1  -3  10   48.45   11.25
  -1   3 -10   37.83    5.81
   1  -3  10   26.49   12.27
   1   4   3   15.46   11.11
   1  -4   3   23.43    6.87
   1  -4   3   22.64   13.30
  -1  -4  -3   -1.29   10.78
  -1  -4  -3   17.42    7.67
  -1   4  -3   22.75    5.02
   7   3  -6   17.92    9.66
  -7   3   6    8.62    6.01
  -7   3   6    8.00    6.43
  -7  -3   6   16.55   12.34
   5  -1  12  197.78   37.40
  -5   1 -12  245.65   37.15
   5  -1  12  181.30   23.09
   5   1  12  197.82   21.89
   5   1  12  203.55   44.37
   5   1  12  221.38   28.26
  11   1  -4  189.59   27.03
  11  -1  -4  197.53   21.39
 -11  -1   4  194.19   31.91
 -11   1   4  191.20   19.72
  -2  -4  -2   15.34    6.76
  -2   4  -2    8.33   12.58
  -2   4  -2    7.83    3.78
   2   4   2    9.07    9.52
   2  -4   2   11.77    8.31
   2  -4   2   14.54    6.31
  -2  -4  -2   11.83   14.26
 -10   2   2   79.91   29.54
  10  -2  -2   65.57    7.51
 -10  -2   2   91.07   15.16
  10   2  -2   87.27   13.06
 -10   2   2   59.28    7.75
   1  -2  13  281.07   32.46
   1   2  13  145.87   26.61
   1   2  13  160.28   13.48
   1  -2  13  170.13   28.24
  -1   2 -13  218.14   20.18
  -7  -2  11   74.97   14.57
  -7   2  11   54.32   19.38
   7   2 -11   89.68   20.12
   7  -2 -11   42.91   19.00
 -11   1   0  216.78   18.82
 -11   1   0  267.98   39.57
  11   1   0  272.07   33.26
  11  -1   0  265.70   20.51
 -11  -1   0  278.69   28.08
   7  -1  10   94.63   13.06
  -7   1 -10  135.18   26.06
  -7  -1 -10  142.43   20.38
   7  -1  10  135.87   18.82
   7  -1  10  137.44   18.69
   7   1  10  126.67   30.46
   7   1  10  121.73   25.24
  -3  -4   1   15.67    8.29
  -3   4   1   12.01   10.75
  -3   4   1    7.81    6.50
  -3  -4   1    8.33    8.80
   3  -4  -1   11.45    5.54
   3   4  -1    8.81    5.90
   0  -4   4  173.01   43.70
   0   4   4  178.18   35.30
   0   4  -4  261.38   29.81
   0  -4   4  302.50   42.51
  -6  -2  12  126.18   18.83
   6  -2 -12   75.02   24.54
  -6   2  12   80.46   16.88
   6   2 -12  130.25   24.34
 -10   2   4   96.93   11.48
  10  -2  -4   89.79   14.03
  10   2  -4  130.63   24.12
 -10  -2   4  129.49   29.39
  10   2   0  634.49   69.96
 -10  -2   0  695.43   83.94
 -10   2   0  579.46   94.29
  -4   1 -13  156.36   17.63
   4   1  13  106.61   35.47
   4  -1  13  207.55   33.35
   4  -1  13  135.82   22.81
   4   1  13  127.65   18.51
  -2   1  15  220.46   46.12
  -2  -1  15  283.63   33.09
   2   1 -15  282.74   40.86
   2  -1 -15  221.76   29.14
   1   0  15  117.34   26.73
   1   0  15  135.67   22.62
  -1   0 -15  135.09   19.56
  -8  -3   1  168.72   36.22
  -8   3   1  113.13   40.09
   8   3  -1  144.64   20.34
  -3  -4  -1  192.05   26.86
  -3   4  -1  185.32   25.79
   3   4   1  216.25   33.17
   3  -4   1  140.37   30.83
  -3   4  -1  124.26   13.63
  -3  -4  -1  217.75   46.06
  11   0  -7   42.34   12.65
 -11   0   7   39.61   14.00
   8   3  -3  517.13   57.38
  -8  -3   3  550.31   49.95
  -8   3   3  454.04   51.76
  -8   3   3  296.58   25.27
  -8   3   3  298.42   28.52
  -2   4   4   66.82   17.80
  -2  -4   4  120.65   18.04
  -2   4   4   67.51   13.18
   2   4  -4  106.19   20.71
  -2  -4   4   76.29   25.83
  -8  -2  10  224.64   24.93
   8  -2 -10  174.53   31.74
   8   2 -10  236.84   34.52
  -8   2  10  151.45   20.56
  10  -1  -9   15.21    6.00
  10   1  -9   28.34   11.40
 -10  -1   9   25.46   13.26
 -10   1   9   21.16   10.32
  -3   4   3  203.74   36.77
   3   4  -3  300.51   38.09
  -3  -4   3  344.28   53.32
  -3  -4   3  203.85   40.09
  -3   4   3  205.67   30.41
   7   3   4   98.99   25.33
  -7   3  -4  120.69   41.18
   7  -3   4   81.63   18.51
  -7  -3  -4   98.48   20.08
  10   0 -10   28.33   12.69
 -10   0  10   30.22    8.66
  -5   0  15  538.50   68.43
   5   0 -15  543.86   53.54
   0   1 -15  487.02   55.17
   0   1  15  412.14   45.57
   0   1  15  294.18   42.23
   0  -1  15  330.82   59.13
   0  -1  15  438.23   44.92
  11  -1  -6  417.87   43.40
 -11  -1   6  426.57   54.90
 -11   1   6  351.92   30.19
  11   1  -6  400.97   46.96
 -10  -1  -5   10.41    9.36
  10  -1   5    8.10    2.65
  10   1   5    0.18    7.39
  10  -1   5   12.98    2.93
 -10  -1  -5   21.46    5.95
 -10   1  -5   11.74   15.62
   6   0  12  273.99   28.91
   6   0  12  221.14   36.30
  -6   0 -12  294.23   46.74
   6   0  12  272.43   36.63
  -8  -1  -9   25.15    8.71
   8  -1   9   10.51    4.22
  -8   1  -9   17.24    9.66
   8  -1   9   10.15    5.02
   8   1   9   16.09    6.01
  -1   4   5  113.75   27.37
   1   4  -5  184.71   24.30
  -1  -4   5   97.38   20.42
  -1   4   5  101.46   12.64
  -1  -4   5  182.81   32.00
 -11   0  -3    0.90    2.86
 -11   0  -3   -0.18    6.68
  11   0   3    1.08    2.59
  -2  -3  11  372.26   33.18
   2   3 -11  399.45   39.80
  -2  -3  11  237.04   38.90
  -2   3  11  192.29   34.17
  -2   3  11  350.14   26.96
  -8  -3  -1  447.53   52.60
  -8   3  -1  505.46   85.50
   8   3   1  560.72   53.78
   5  -2 -13   20.44   13.68
  -5   2  13   14.55    8.82
   5   2 -13   27.14   12.65
  -5  -2  13   30.19   15.44
 -10   0  -6    6.76    5.98
  10   0   6    3.62    4.28
   5   0  13   76.78   23.40
   5   0  13   94.05   21.32
   7   0  11    1.14    2.49
   7   0  11    1.65    4.35
  -7   0 -11    3.37    6.00
  -2   4  -4  498.24   39.10
  -2  -4  -4  270.86   26.88
   2  -4   4  452.08   42.16
   2  -4   4  303.79   39.38
  -2   4  -4  367.78   50.44
   2   4   4  335.55   38.40
   0   3  11   41.91   29.47
   0   3  11   67.84   18.26
   0  -3  11   76.22   20.46
   0   3 -11  125.55   11.60
   0  -3  11   94.38   12.45
  -4   1  15    9.66   10.89
   4  -1 -15    8.95    6.78
  -4  -1  15   11.24    6.71
   4   1 -15    8.88    9.71
   5   2  11   20.42   11.99
   5  -2  11   27.45    6.26
  -5   2 -11   34.13    7.57
   5   2  11   34.47    9.48
  -9  -2  -5   13.29    9.83
   9   2   5    3.32    4.34
  -9   2  -5    3.37    7.27
  -3   1 -14  113.71   14.05
   3   1  14   64.10   28.64
   3  -1  14   98.83   17.82
   3  -1  14   56.52   11.94
   3   1  14   81.93   14.79
   6   2  10   30.60    8.26
   6  -2  10   30.06   15.82
   6  -2  10   18.51    3.90
  -6   2 -10   28.06   12.62
  11  -1   2  178.58   17.19
  11   1   2  183.98   26.37
 -11  -1  -2  180.24   29.98
 -11   1  -2  190.15   32.99
   4  -4   0   53.30   12.63
  -4   4   0   53.87   11.74
  -4  -4   0   51.41   16.30
   4   4   0   94.48   21.34
  -4  -4   0   74.09   28.53
  -4   4   0   46.10   15.18
  10   2  -6  370.42   34.16
 -10  -2   6  390.76   40.32
  10  -2  -6  288.99   36.05
 -10   2   6  317.16   32.46
  -6  -3   9  202.73   27.18
  -6   3   9   94.47   26.98
   6   3  -9  209.20   22.69
   8   3  -5   55.44   11.12
  -8   3   5   33.35   13.00
  -8   3   5   33.65    8.84
  -8  -3   5   52.47   20.43
  -1   4  -5   57.12   12.19
   1  -4   5   29.60   12.79
   1   4   5   52.53   18.68
   1  -4   5   56.24   14.74
  -3   4  -3  168.00   19.34
  -3  -4  -3  201.04   51.86
  -3  -4  -3  149.77   19.93
  -3   4  -3  153.72   28.55
   3  -4   3  135.88   36.26
   3   4   3  169.37   22.95
   3  -4   3  234.37   25.15
   4   4  -2  223.39   23.69
  -4  -4   2  184.73   29.47
  -4   4   2  136.38   22.50
  -4   4   2  125.66   21.05
  -4  -4   2  133.05   19.87
  -5  -3  10  281.73   33.44
   5   3 -10  282.90   26.87
  -5   3  10  177.33   28.58
  -2  -2  14  285.83   29.65
   2   2 -14  316.32   38.90
  -2   2  14  162.68   46.47
  -2  -2  14  216.11   57.29
  10   2   2   60.53   18.34
 -10   2  -2   56.65   17.20
 -10  -2  -2   55.50   13.74
   4   3   9   49.82   15.78
   4  -3   9   56.65   18.49
   4  -3   9   88.75   10.46
  -4   3  -9  112.46   10.74
  -9   2   9  114.79   16.30
   9  -2  -9  131.31   18.35
   9   2  -9  178.36   19.76
  -9  -2   9  192.21   23.53
   5   3   8    6.31   10.10
   5  -3   8    5.48    2.57
   5  -3   8    6.19    6.71
  -5   3  -8    7.99    2.61
  -4   2 -12   52.96   10.28
   4  -2  12   29.98    5.02
   4   2  12   37.36   17.06
   4   2  12   22.70   12.35
   4   0  14   33.81   13.25
   4   0  14   19.52    9.51
   8   0  10    1.40    4.36
   8   0  10    2.17    2.46
  -8   0 -10    1.02    6.59
   7   2   9   92.40   16.45
  -7   2  -9  121.40   25.66
   7  -2   9   86.92    8.55
   7  -2   9  104.06   17.69
  -7  -2  -9  101.75   10.43
  -7   3   8    2.43    4.56
   7   3  -8    8.26    4.60
  -7   3   8    6.21    5.91
  -7  -3   8    5.23   10.01
   3   3  10  281.58   58.55
   3  -3  10  455.90   37.51
  -3   3 -10  596.15   42.64
   3  -3  10  297.30   43.81
  -3   4   5   24.20    8.15
  -3  -4   5   31.60   10.60
   3   4  -5   58.06   14.22
  -3   4   5    7.05    8.47
  -3  -4   5   62.26   11.49
  -3   4   5   23.06    7.31
   2   0 -16    7.27    5.85
  -2   0  16    9.52   10.91
   0   2  14   20.52   13.20
   0   2  14   46.93    8.62
   0  -2  14   30.87   14.13
   0  -2  14   44.40   17.28
   0   2 -14   51.75    9.20
   0  -4   6  129.57   39.39
   0   4  -6  171.55   16.39
   0   4   6  100.04   21.12
   0  -4   6  190.25   20.50
  -4   4  -2   58.44   10.20
  -4  -4  -2   84.93   31.07
  -4   4  -2   69.91   29.24
   4   4   2   71.13   14.15
   4  -4   2   51.18   13.93
  -4  -4  -2   61.20   13.52
 -12   0   2   90.54   16.53
  12   0  -2   96.98   15.94
   6   3   7  211.52   43.25
   6  -3   7  219.96   49.10
  -4  -3  11   40.59   16.95
   4   3 -11   35.39    8.05
  -4   3  11   10.25   16.00
  -4  -3  11    8.94   13.83
  -9   1  -8  233.07   50.29
   9   1   8  112.39   22.39
   9  -1   8   93.04   10.84
  -9  -1  -8  164.73   25.16
  -4   4   4   67.62   19.35
  -4   4   4  136.36   28.49
  -4  -4   4  161.94   36.93
   4   4  -4  161.71   26.37
  -4   4   4   76.68   20.74
  -4  -4   4  106.73   28.61
  -2  -4   6  439.11   56.93
  -2  -4   6  253.30   37.64
  -2   4   6  220.40   42.50
  -2   4   6  255.28   25.42
   2   4  -6  438.27   46.03
   8   1 -13    8.44    5.40
   8  -1 -13    4.43    8.68
  -8  -1  13    7.68   10.02
  12   0  -4   24.92    5.75
 -12   0   4   16.99   10.08
  -8   3  -3   19.23   27.18
   8   3   3   51.42   18.41
  -8  -3  -3   54.10   23.19
  -4   2  14   83.49   31.38
   4   2 -14  142.42   26.26
  -4  -2  14  126.39   20.12
   3   2  13   10.76    7.51
   3   2  13    4.76    8.31
  -3   2 -13   13.70    6.47
   3  -2  13    8.49    3.83
   3  -2  13   25.31   14.26
   0   0  16   27.03   15.95
   0   0  16   19.24   13.42
   0   0 -16   19.17   13.88
   7   1 -14  219.36   25.07
  -7  -1  14  202.18   24.52
   7  -1 -14  149.03   34.04
  -7   1  14  151.23   36.83
 -11   0   9   90.01   14.07
  11   0  -9   83.03   12.63
  -9   1  12   46.79   18.65
  -9  -1  12   64.21   20.24
   9  -1 -12   40.49   11.20
   9   1 -12   59.35   18.23
 -11  -1   8  203.28   35.98
  11  -1  -8  190.42   30.42
  11   1  -8  208.16   22.68
 -11   1   8  184.53   28.91
   4   0 -16   57.96   12.54
  -4   0  16   49.22   13.58
 -12   0   0  208.93   24.18
  12   0   0  170.14   15.47
  -2   1 -15   55.31   11.62
   2   1  15   46.89   13.71
   2   1  15   33.23   15.01
   2  -1  15   46.33   18.10
   2  -1  15   45.06   13.02
   2  -3  11  163.36   27.82
   2   3  11  129.34   35.79
  -2   3 -11  179.04   13.80
   2  -3  11  130.84   12.75
   2   3  11  119.98   39.07
  -5  -4   1   77.57   20.05
  -5  -4   1  101.58   32.97
  -5   4   1   66.60   12.77
  -5   4   1   69.01   27.14
  -5   4   1   57.38   12.95
   5   4  -1  108.47   23.84
   8   2   8  315.06   48.97
   8  -2   8  282.40   36.87
  -8   2  -8  313.20   47.48
  -8  -2  -8  305.82   27.29
   3   0  15  184.98   28.53
   3   0  15  173.87   35.69
  -9   0  -9   88.18   20.06
   9   0   9   66.79   14.66
   9   0   9   75.32   10.84
  -8   3   7  241.99   45.11
  -8  -3   7  267.56   45.78
  -8   3   7  160.10   25.38
   8   3  -7  266.09   39.32
   1   3 -12  178.75   16.24
  -1   3  12   88.27   35.17
  -1  -3  12  174.41   28.04
  -1   3  12   80.63   21.85
  -1   3  12  132.12   10.60
  -1  -3  12   98.02   24.87
  -7  -3  -6   54.19    6.65
   7   3   6   14.89   18.91
  -7  -3  -6   -2.88   15.47
   7  -3   6   40.50   22.50
  -7   3  -6   90.37   29.96
   3  -4   5   10.88    5.79
  -3   4  -5   10.21    4.60
   3   4   5    3.03    6.15
  -5  -4   3   56.69   21.17
  -5   4   3   80.14   17.44
  -5   4   3   20.63   13.08
  -5   4   3   32.09   12.66
   5   4  -3   89.17   13.25
  -5  -4   3   98.91   18.06
  -9  -3   2   30.01   19.12
   9   3  -2   49.64    9.13
  -9   3   2   17.55    4.64
  -9   3   2   22.55   21.97
  -9   3   2   23.12    4.37
  -1  -4   7    6.84    4.84
   1   4  -7    7.87    5.71
  -1   4   7    4.75    8.49
  -1   4   7    1.82    4.11
  -1  -4   7    3.76   10.21
   5   4   1   95.98   16.22
  -5  -4  -1  107.15   20.89
  -5   4  -1   55.33   10.62
   5  -4   1   73.34   15.89
  -5   4  -1   85.19   32.44
  -5  -4  -1   84.05   17.34
   2   4   6    2.42    5.37
   2  -4   6   12.81    5.34
  -2   4  -6    4.16    2.62
  10  -2  -8    0.49    4.50
 -10   2   8    1.93    3.83
  10   2  -8    2.20    5.96
 -10  -2   8    2.22    7.31
  -8   0  14  302.98   48.57
   8   0 -14  293.23   45.67
 -12   0   6   41.42   14.11
  12   0  -6   37.94    7.61
  -1  -1  16  298.82   48.69
   1   1 -16  314.25   31.84
   1  -1 -16  249.07   31.36
  -1  -1  16  233.26   48.58
  -1   1  16  124.84   24.90
  -1   1  16  248.35   35.48
  11   1   4  127.32   22.99
 -11  -1  -4  121.58   20.35
 -11  -1  -4  116.38   24.64
 -11   1  -4  115.17   43.88
 -11   0  -5    7.99    7.41
  11   0   5    6.38    5.12
   9   0 -13   12.23    7.03
  -9   0  13   14.75    7.50
  -6  -1  15  192.79   25.06
  -6   1  15  136.78   23.34
   6  -1 -15  136.15   22.56
   6   1 -15  200.09   24.42
  12   1  -3   44.48    9.19
 -12  -1   3   60.84   17.91
 -12   1   3   56.03    9.83
  12  -1  -3   59.18   10.39
   3   1 -16  489.53   62.13
   3  -1 -16  365.39   60.43
  -3  -1  16  458.41   65.82
  -3   1  16  360.64   43.62
 -11   2   3   38.36    6.44
  11  -2  -3   48.27    8.61
 -11  -2   3   61.39   21.62
  11   2  -3   66.15   11.79
 -11   2   3   60.73   17.41
  10   2   4  116.99   18.19
 -10   2  -4  138.15   28.76
 -10  -2  -4  110.92   20.34
  -3  -3  12   15.99   21.81
  -3  -3  12   19.11    8.99
   3   3 -12   29.38    7.15
  -3   3  12    8.00    9.70
  -9   3   0   97.44   38.58
   9   3   0  104.64   17.36
  -9  -3   0   93.87   21.15
   4   4   4    0.97    4.82
  -4  -4  -4    4.28    4.39
  -4  -4  -4    8.76    7.53
  -4   4  -4    2.47    3.05
   4  -4   4    6.94    5.62
   4  -4   4    5.56    4.04
  -9   3   4  287.64   26.19
  -9   3   4  402.20   72.68
  -9  -3   4  519.02   66.63
   9   3  -4  519.64   59.67
  -9   3   4  289.45   31.88
 -11   2   1    2.96    7.47
 -11  -2   1    9.09    5.86
  11   2  -1    6.13    4.54
 -11   2   1    4.54    1.81
  10   1 -11  164.67   30.05
 -10  -1  11  175.45   35.57
 -10   1  11  141.20   30.28
  10  -1 -11  120.01   29.01
  12  -1  -1  642.76   52.22
 -12   1   1  669.29   52.09
 -12  -1   1  665.91   79.23
  12   1  -1  633.80   69.30
  -1   4  -7  175.64   20.51
   1  -4   7  180.26   26.51
   1  -4   7  103.24   41.26
   1   4   7   88.39   21.47
  -7   0  15   10.35    9.63
   7   0 -15    1.64    8.85
   2   2  14  240.65   17.11
  -2   2 -14  440.05   39.53
   2   2  14  224.45   36.27
   2  -2  14  293.17   54.41
   2  -2  14  251.87   26.12
  -4   4   6  188.35   39.56
  -4  -4   6  282.74   38.39
  -4   4   6  210.23   28.60
   4   4  -6  433.21   38.02
  -4  -4   6  437.06   62.05
  -4   4   6  359.69   44.25
  10   1   7    0.67    7.55
 -10   1  -7   17.59   15.97
 -10  -1  -7   11.95    5.80
  10  -1   7   11.63    4.25
  10  -1   7    8.29    3.38
  12  -1  -5   53.55   11.73
  12   1  -5   48.34   15.96
 -12   1   5   42.27   10.72
 -12  -1   5   43.39   11.39
  -3  -4   7   95.25   21.72
  -3   4   7  130.58   22.89
  -3   4   7   68.89   17.91
  -3   4   7   80.11   25.87
   3   4  -7  158.15   17.64
  -3  -4   7  170.12   22.08
   1   3  12   40.07   32.08
   1   3  12   48.21   29.57
   1  -3  12  119.02   19.85
  -1   3 -12  128.47   17.73
   1  -3  12   67.02   20.56
  -8  -2  12   61.69   14.38
   8  -2 -12   30.80   19.33
  -8   2  12   24.61   18.58
   8   2 -12   67.46   12.22
 -12   0  -2    9.25    9.74
 -12   0  -2   13.04    4.21
  12   0   2   12.25    6.54
   7   2 -13  499.06   57.39
  -7   2  13  315.89   39.80
  -7  -2  13  500.97   66.36
   7  -2 -13  323.64   39.40
  11   2  -5  312.96   41.24
 -11   2   5  191.61   16.94
  11  -2  -5  232.00   28.07
 -11  -2   5  339.90   36.13
 -10   0  12  613.08   60.14
  10   0 -12  656.92   78.17
  -5   4   5  119.37   26.43
  -5   4   5  114.64   17.90
  -5  -4   5  255.30   32.24
   5   4  -5  266.58   37.00
  -5   4   5  202.61   26.43
  -5  -4   5  186.05   43.31
  -1  -2  15  130.76   43.53
  -1  -2  15  194.68   35.34
   1   2 -15  222.86   31.69
  -1   2  15  106.92   26.05
  -9  -2  -7  118.57   16.86
  -9   2  -7  129.74   32.85
   9   2   7   87.01   25.94
  -5  -4  -3  252.21   34.90
  -5   4  -3  137.62   15.23
   5  -4   3  193.55   27.82
  -5  -4  -3  203.31   21.91
   5   4   3  234.55   28.64
  -3   2  15  103.67   23.73
  -3  -2  15  136.67   30.87
   3   2 -15  210.29   31.61
  -3  -2  15  184.15   35.62
 -11   2  -1   12.63   10.98
  11   2   1   18.64    9.93
 -11  -2  -1    4.88   13.37
   2   0  16   25.48   17.60
   2   0  16   27.75    8.75
  10   0   8  200.38   23.86
 -10   0  -8  327.50   47.99
  10   0   8  126.78   19.79
   8   3   5   66.71   24.55
  -8   3  -5   16.48   41.38
  -8  -3  -5   99.05   21.10
 -12   1  -1    9.76   20.38
  12   1   1   21.41    6.14
  12  -1   1   28.91    6.64
 -12   1  -1    9.28    4.55
 -12  -1  -1   19.45   11.72
  -9   3  -2   20.96   21.56
  -9  -3  -2   27.56   18.48
   9   3   2   15.85   14.97
   1   1  16  228.39   37.70
   1  -1  16  273.00   35.34
   1   1  16  316.93   38.26
  -1   1 -16  341.28   45.45
   1  -1  16  293.35   38.69
   9  -2 -11   29.42    9.55
  -9  -2  11   41.98   11.69
   9   2 -11   43.08   10.55
  -9   2  11   17.48   14.22
  -6   4   2  257.95   53.29
  -6  -4   2  219.19   27.57
  -6  -4   2  234.85   34.91
   6   4  -2  293.90   41.82
  -6   4   2  125.05   19.79
  -6   4   2  148.24   22.41
  -6   3  11   85.50   19.93
   6   3 -11  208.67   32.37
  -6  -3  11  212.24   27.71
   0   4  -8  102.57   12.41
   0  -4   8   88.83   33.95
   0  -4   8  115.22   23.01
   0   4   8   48.65   27.14
   6  -2 -14    1.28    7.29
  -6  -2  14    0.55    8.82
   6   2 -14    4.05    6.98
  -6   2  14    2.91    4.63
  -7  -3  10  101.13   29.90
   7   3 -10   84.62   21.73
  -7   3  10   50.80   13.10
  -9   3   6   68.96   31.56
  -9   3   6   71.41   13.61
   9   3  -6  110.32   16.97
  -9  -3   6  121.97   20.47
   2   4  -8   10.43    4.19
  -2   4   8    3.73    9.48
  -2   4   8    2.00   10.32
  -2   4   8    2.63    4.85
  -2  -4   8    2.03   12.20
  -2  -4   8    7.46   10.33
  -6   4   0   12.18   18.17
  -6   4   0   13.32    5.72
  -6   4   0    8.27    5.45
   6   4   0   44.21    9.16
  -6  -4   0   20.88   12.09
  -6  -4   0   33.93   11.61
   6   1  13   73.77   31.67
  -6   1 -13  106.33   26.75
   6   1  13  167.14   28.14
   6  -1  13   60.89   15.64
   6   0 -16   11.43    7.16
  -6   0  16   10.42    7.48
  -7  -1 -12   10.71    8.21
   7   1  12   14.40    6.23
   7  -1  12    9.65    4.52
   7  -1  12    9.34    3.38
  -7   1 -12   18.20   17.38
   7   1  12   12.35   13.59
  -5   1  16   75.67   28.11
   5   1 -16  107.63   26.21
   5  -1 -16   73.90   28.57
  -5  -1  16  104.55   30.38
 -12   0   8  150.25   28.68
  12   0  -8  148.97   25.95
   5  -1  14  144.86   17.55
   5  -1  14  203.16   37.40
   5   1  14  142.58   23.80
   5   1  14  142.02   20.27
   5   1  14  117.41   41.16
  -1   0  17  107.49   33.67
  -1   0  17  120.47   36.04
   1   0 -17  123.56   21.61
   3   0 -17   34.87   11.13
  -3   0  17   33.36   20.22
  11   1 -10   61.91   11.84
  11  -1 -10   44.57   10.49
 -11   1  10   45.59   16.36
 -11  -1  10   58.36   22.02
   5   3 -12  513.04   60.32
  -5  -3  12  474.07   69.80
  -5   3  12  267.40   60.31
  12  -1  -7   92.19   13.00
 -12   1   7   90.45   19.01
 -12  -1   7  102.34   27.48
  12   1  -7   99.93   22.50
  -6   4   4   22.81    7.46
  -6  -4   4   85.13   26.41
  -6   4   4   42.97   13.00
  -6   4   4   21.06    6.55
   6   4  -4   73.43   11.80
  -6  -4   4   51.17   13.03
   8  -1  11  180.32   24.38
  -8   1 -11  187.24   51.86
  -8  -1 -11  200.56   26.65
   8   1  11  163.11   30.97
   8   1  11  149.24   37.27
   8  -1  11  151.11   20.90
   8  -1  11  125.38   16.93
  -2  -3  13  320.59   74.91
  -2  -3  13  519.60   65.74
  -2   3  13  245.45   66.39
   2   3 -13  538.73   55.19
  -8   3   9   66.23   13.66
   8   3  -9  124.59   17.43
  -8  -3   9  122.50   34.08
  -5   3 -10  480.20   35.80
   5  -3  10  498.36   40.64
   5  -3  10  295.73   46.27
   5   3  10  332.04   64.89
   1   2  15  146.21   30.19
   1  -2  15  238.92   27.01
   1   2  15  153.10   20.39
   1  -2  15  199.01   49.00
  -1   2 -15  276.76   34.73
 -11   0  11    3.44    7.48
  11   0 -11    2.80    6.65
  11  -2  -7  136.06   24.27
  11   2  -7  209.96   24.34
 -11  -2   7  207.69   41.94
 -11   2   7  156.72   23.04
  -6  -4  -2   72.96   31.16
  -6  -4  -2   55.20   14.39
  -6   4  -2  109.12   33.14
   6   4   2   55.94   14.75
   3  -4   7  109.19   25.14
  -3   4  -7  144.71   16.75
   3   4   7   93.14   22.44
  -3   4  -7  135.35   34.38
   3  -4   7  188.86   20.60
   4  -3  11  191.17   45.10
   4   3  11  167.04   38.54
  -4   3 -11  171.20   19.72
   4  -3  11  161.24   18.33
   6  -3   9   13.35   16.07
   6   3   9  122.84   25.67
  -4   4  -6  372.02   56.05
   4  -4   6  588.12   44.25
   4   4   6  328.78   43.93
  -4   4  -6  328.77   28.75
   0  -3  13    9.95   10.70
   0   3  13    6.20    9.79
   0   3  13    6.75   15.74
   0  -3  13   21.05    6.70
   0   3 -13   19.76    8.98
 -10  -2  10  116.43   18.53
  10  -2 -10   58.99   20.91
 -10   2  10   57.48   12.74
  10   2 -10  106.35   24.72
  -5   2  15  202.97   53.11
   5   2 -15  367.94   49.13
   5  -2 -15  244.55   35.62
  -5  -2  15  357.34   39.98
   4   1  15  241.56   31.05
   4   1  15  188.41   52.02
   4  -1  15  350.52   50.10
   4  -1  15  214.15   37.00
   6   2  12  107.02   25.82
   6  -2  12   34.76    7.49
   6   2  12   53.54   19.29
   2   4   8  170.82   33.38
  -2   4  -8  349.22   31.05
   2  -4   8  206.07   36.16
   2  -4   8  361.15   35.65
  11   2   3   91.44   21.78
 -11  -2  -3   68.16   15.70
 -11   2  -3   19.67   36.17
  -1   4   9  354.21   31.78
  -1  -4   9  397.51   82.40
   1   4  -9  711.61   64.50
  -1  -4   9  674.59   58.40
  -1   4   9  337.59   66.52
  -1   4   9  294.34   74.35
  11  -1   6   36.11    5.19
 -11  -1  -6   50.73   11.90
 -11   1  -6   84.89   18.31
  11   1   6    3.27    8.58
  11  -1   6   38.66    5.52
  -5   4   7   29.23   15.64
  -5  -4   7   62.76   14.37
  -5   4   7   28.82    9.13
  -5   4   7    7.08    8.92
  -5  -4   7   38.02   24.21
   5   4  -7   61.40   10.66
  10   2   6   90.63   16.86
 -10   2  -6  108.38   28.17
 -10  -2  -6  101.25   17.04
 -10  -2  -6   59.83   19.14
  -4   4   8   50.65   22.46
  -4   4   8   82.23   25.52
  -4   4   8   73.17   28.52
   4   4  -8  175.60   25.99
  -4  -4   8  112.09   23.03
  -4  -4   8  185.87   36.85
  12   0   4    3.37    4.65
 -12   0  -4    5.44    3.21
 -12   0  -4    4.91   11.89
   5   2  13  184.29   50.86
   5   2  13  196.03   41.33
  -5   2 -13  257.37   26.53
   5  -2  13  181.37   20.70
   7   2  11  149.42   28.50
   7  -2  11   99.20    9.36
   7   0  13    2.54    6.93
   7   0  13    1.56    6.84
  -7   0 -13    2.05    9.23
   7   0  13    8.55    6.93
  -5   4  -5    5.03    7.79
   5   4   5    1.15    5.31
  -5   4  -5    2.63    3.26
   5  -4   5    2.98    3.73
  -5  -4  -5    6.39    2.60
  -5  -4  -5   -1.41    8.03
  -2   1  17  150.70   28.73
   2   1 -17  201.83   36.87
   2  -1 -17  157.12   38.91
  -2  -1  17  201.97   29.77
  -2  -1  17  172.57   32.18
  13   0  -3  213.24   28.98
 -13   0   3  211.26   30.73
  12   1   3   11.58    7.02
  12  -1   3    6.65    3.22
 -12   1  -3    9.86   10.09
 -12  -1  -3   15.54    9.05
   6   0  14  102.05   31.64
   6   0  14  148.65   29.32
   3   3  12  112.92   43.36
   3   3  12   91.89   36.95
   3  -3  12  105.60   26.25
   3  -3  12  168.83   19.54
  -3   3 -12  156.41   14.81
   7  -3   8   82.57   19.45
   7   3   8   67.81   27.33
   9  -1  10    9.03    6.21
   9   1  10   23.56    8.46
   9  -1  10   12.76    6.52
  -9  -1 -10   26.27    9.81
  -9   1 -10   37.18   20.79
   9   1  10    3.06   11.18
   9  -1  10   19.89    5.18
 -10  -3   3  146.99   22.80
 -10   3   3   66.31    9.87
  10   3  -3  130.93   19.21
 -10   3   3  105.13   26.56
  -4   3  13  133.95   30.17
  -4  -3  13  182.71   39.99
   4   3 -13  284.84   37.47
  -4  -3  13  266.43   46.04
 -10   3   1    3.43    6.21
  10   3  -1    1.38    3.84
 -10  -3   1    1.49    9.30
   9   3   4  111.69   31.48
  -9   3  -4  142.58   54.63
  -9  -3  -4  132.56   25.95
  -1   0 -17   97.60   26.11
   1   0  17   69.96   16.02
   1   0  17   80.66   30.64
  -5   0  17   68.87   26.45
   5   0 -17   64.01   15.23
  11   0   7    3.84    2.75
 -11   0  -7    4.48   11.09
 -13   0   1    6.73    6.50
  13   0  -1    8.45    6.09
   8   0  12   50.68    9.89
  -8   0 -12   65.41   14.42
   8   0  12   38.51   15.67
   9   3  -8   56.96   12.08
  -9   3   8   32.11   12.80
  -9  -3   8   65.80   15.13
  -9   3   8   47.97   14.48
  -6  -4   6   35.56   23.18
  -6   4   6   30.80   10.50
  -6   4   6   22.35   12.43
  -6   4   6    5.96   11.01
   6   4  -6   57.16   11.12
  -6  -4   6   32.12   13.36
 -13   0   5    5.70    7.78
  13   0  -5    8.03    6.78
  -3   4   9   76.13   28.54
   3   4  -9  174.21   26.75
  -3  -4   9   99.00   23.37
  -3  -4   9  182.60   35.47
  -3   4   9  107.60   18.84
  -3   4   9   65.98   20.38
  -7   4   1    2.27    4.94
  -7  -4   1   72.65   19.97
  -7  -4   1    0.33    7.38
   7   4  -1   62.52    9.11
  -7   4   1   28.24   21.07
   5   0  15  178.03   44.41
   5   0  15  264.22   30.44
   1  -4   9    4.60    8.67
  -1   4  -9    6.54    5.96
   1  -4   9   11.02    7.61
   1   4   9    1.99   11.29
   9   1 -14   75.64   22.92
  -9   1  14   57.34   15.78
  -9  -1  14   79.91   16.39
   9  -1 -14   52.16   22.07
   4   2  14  130.50   50.44
   4  -2  14  175.87   23.14
   4   2  14  142.89   43.65
  -4   2 -14  223.13   27.68
   8  -2  10   -4.14    6.37
  -8  -2 -10    0.56    2.19
   8   2  10   14.02    5.13
   8  -2  10    0.56    1.02
  -8   2 -10   -3.38   10.12
   8  -2  10    0.75    1.38
   0   1  17  160.39   30.36
   0   1 -17  202.85   24.41
   0  -1  17  177.89   39.57
   0   1  17   98.12   28.83
   0  -1  17  153.39   27.51
   4  -1 -17   27.50   17.52
   4   1 -17   32.52   15.83
  -4  -1  17   24.98   11.19
  -4   1  17   19.90   10.82
  -8  -1  15  335.68   37.78
   8   1 -15  358.18   37.43
   8  -1 -15  239.12   47.88
  -8   1  15  245.79   51.76
  -7   4   3    4.47    5.14
  -7   4   3   11.21   13.08
  -7   4   3    5.21    4.74
  -7  -4   3    8.02    8.58
   7   4  -3   15.37   10.29
  -2   2  16   75.87   20.00
  -2  -2  16  103.37   18.08
  -2  -2  16   93.24   35.33
 -10   3   5   59.38   11.51
 -10   3   5   90.52   23.13
 -10  -3   5  123.22   20.84
  10   3  -5  134.67   27.44
  10   3   1    7.65    6.86
 -10  -3  -1   14.64    8.94
 -10   3  -1    8.18   10.81
  -6  -4  -4   30.56   29.89
  -6  -4  -4   37.60    7.93
   6  -4   4   42.07   21.67
  -6   4  -4   24.02   30.11
   6   4   4   41.10   12.75
  12   2  -2  105.22   16.68
 -12   2   2   96.95   39.57
 -12  -2   2  106.49   30.06
  12  -2  -2   80.23    9.06
 -12   2   2   78.91    7.81
   3  -1  16   56.54   15.11
   3  -1  16   43.90   12.33
  -3   1 -16   52.04   17.34
   3   1  16   32.86   15.92
   3   1  16   52.11   13.32
  -7   4  -1    5.70    2.37
  -7  -4  -1   18.94    4.87
  -7   4  -1   14.00   16.18
  -7   4  -1    0.17    2.26
   7   4   1    9.81    6.63
  -7  -4  -1   26.43   14.04
  -7   4  -1   10.07   14.50
 -10  -1  13  256.54   32.05
  10   1 -13  254.90   28.34
  10  -1 -13  171.66   27.30
 -10   1  13  197.20   28.95
 -12   1   9  162.84   20.66
  12  -1  -9  171.13   31.09
  12   1  -9  223.87   35.56
 -12  -1   9  229.14   42.70
  12   2  -4   72.62   13.18
 -12   2   4   41.36    8.62
  12  -2  -4   46.08   11.07
 -12  -2   4   70.48   15.44
  12   0 -10    1.84    5.61
 -12   0  10    1.89    6.55
  -9   0 -11   26.81   17.01
   9   0  11   17.36    5.96
   9   0  11   15.73    9.91
  -2   3 -13   20.42    8.66
   2  -3  13   21.42    5.73
   2  -3  13   12.13   12.49
   2   3  13   12.56    9.96
   2   3  13    9.34   19.63
   8   3   7   -2.22    5.10
  -8  -3  -7    0.85    1.36
   8  -3   7   -0.03    3.72
  -8   3  -7   -3.99    9.17
 -13   0  -1   85.04   16.60
  13   0   1   92.31   15.87
 -13  -1   2  172.36   22.20
 -13   1   2  128.75   16.93
  13   1  -2  132.22   25.96
  13  -1  -2  151.57   18.09
   0  -2  16   33.91   26.26
   0   2 -16   59.07   11.90
   0  -2  16   52.28   20.46
   0   2  16   38.41   10.19
   0   2  16   24.64   15.93
 -11   2   9   47.38   15.89
  11   2  -9   78.01   13.92
 -11  -2   9   85.62   28.88
  11  -2  -9   47.67   16.79
   7  -1 -16   79.65   18.23
  -7  -1  16  115.85   30.78
   7   1 -16  125.81   19.58
  -7   1  16   80.30   19.02
 -13   1   4   40.07   10.49
  13   1  -4   35.45    9.36
  13  -1  -4   47.23   10.65
 -13  -1   4   47.59   18.23
 -10   1  -9  360.77   52.91
  10  -1   9  149.84   16.33
 -10  -1  -9  234.85   39.90
   4   2 -16   12.22   10.21
  -4   2  16    6.17    7.85
  -4  -2  16    9.72   12.36
   4   0  16  177.65   30.18
   4   0  16  212.92   38.20
 -12   2   0   91.57   42.92
 -12  -2   0   89.77   19.85
  12   2   0  106.97   25.08
  -1   3  14   22.69   26.61
  -1  -3  14   37.45   29.14
  -1  -3  14   52.54   13.10
   1   3 -14   81.37   17.01
  -7  -4   5  132.98   21.74
  -7   4   5   44.21   10.18
   7   4  -5  116.63   26.59
  -7   4   5   37.48   14.10
  -7   4   5   96.85   19.96
  -9   0  15  378.21   45.15
   9   0 -15  330.30   39.72
  13   0  -7    5.90    4.54
 -13   0   7    9.83    5.31
  -2   4  10   11.29   21.19
  -2   4  10   17.80    7.43
  -2  -4  10   22.28   22.82
  -2   4  10   18.68   17.64
   2   4 -10   42.67    8.12
  -2  -4  10   35.92   18.22
   3   2  15   31.14   16.31
   3   2  15   37.29    5.10
   3   2  15   49.49   15.38
   3  -2  15  130.77   29.52
   3  -2  15   43.06   14.82
  -3   2 -15   54.77   14.43
  -9   2  -9  203.30   64.94
  -9  -2  -9  212.34   25.57
   9   2   9  180.52   38.31
   0   4  10   83.63   45.06
   0  -4  10  127.76   29.66
   0   4  10   98.94   39.20
   0  -4  10  227.88   34.81
   0   4 -10  218.85   27.50
  -3  -3  14   10.97   18.42
   3   3 -14   21.17   11.07
  -3  -3  14   13.62    8.91
  -3   3  14    9.69   16.15
  -2   0  18    7.44    7.38
  -2   0  18    3.26    6.98
   2   0 -18    8.13    6.74
 -13   1   0   13.33   15.59
 -13   1   0   30.22    6.62
  13  -1   0   21.23    8.69
  13   1   0   22.41   11.92
 -13  -1   0   25.41    9.16
 -10   0  14   29.05   17.45
  10   0 -14   26.42   10.25
  -8   0  16  211.85   31.03
   8   0 -16  185.53   40.19
  -8   2  14   33.55   12.52
   8   2 -14   64.56   12.57
  -8  -2  14   50.13   25.31
   8  -2 -14   28.42   19.77
   7   3 -12   57.25   12.35
  -7   3  12   16.80   20.22
  -7  -3  12   46.97   16.47
 -12  -2   6    8.15   15.06
  12   2  -6   18.02   10.94
  12  -2  -6    9.48    6.82
 -12   2   6   10.28    6.20
 -11   2  -5    4.13   13.45
  11   2   5    1.26    3.96
 -11  -2  -5    2.66    3.26
 -11  -2  -5    6.16    5.61
  -9  -2  13   20.09    9.49
  -9   2  13    3.50   11.80
   9  -2 -13    9.67   12.25
   9   2 -13   17.17   12.86
  11   1 -12  123.26   18.22
  11  -1 -12   76.62   26.61
 -11  -1  12  131.37   33.55
 -11   1  12   91.57   18.30
 -13   1   6   25.97    9.82
  13  -1  -6   31.18   10.83
 -13  -1   6   17.00    9.96
  13   1  -6   31.04    8.22
  -8  -3  11   40.05   24.30
   8   3 -11   42.94   10.89
  -8   3  11   13.69   15.73
  10   3  -7    7.06    9.01
 -10  -3   7    7.65    7.25
 -10   3   7    4.06    4.74
 -10   3   7    4.48    7.33
  -7   4  -3   16.00   29.57
   7   4   3   36.96   12.60
  -7  -4  -3   41.68   11.60
  -7  -4  -3   44.14   16.69
   4  -4   8   25.77    6.43
   4   4   8    1.86    9.25
  -4   4  -8   10.82   15.85
  -4   4  -8   10.73    5.47
   4  -4   8   74.45   18.73
 -10   0 -10   -2.29    5.85
  10   0  10    0.80    2.54
  10   0  10    0.14    1.62
   6   3 -13   35.86   16.08
  -6  -3  13   34.01   13.06
  -6   3  13    6.65   18.38
 -12  -1  -5  107.17   16.22
  12   1   5  107.54   21.89
 -12  -1  -5   61.26   18.95
  12  -1   5   63.77   11.70
 -12   1  -5  122.57   28.54
 -10  -3  -3   70.68   33.62
 -10   3  -3   94.46   25.75
  10   3   3   71.99   27.33
   5   4  -9   93.15   20.14
  -5  -4   9   47.65   32.37
  -5  -4   9   94.84   18.40
  -5   4   9   62.29   18.41
  -5   4   9    8.82   20.28
  -5   4   9   32.09   12.76
  -7   2  15   57.87   16.33
  -7  -2  15   77.14   18.99
   7  -2 -15   51.47   15.60
   7   2 -15   84.55   15.18
   4   0 -18  123.62   33.41
  -4   0  18  122.25   23.92
   6   4  -8  430.79   52.11
  -6   4   8  135.86   38.43
  -6   4   8  164.59   42.08
  -6  -4   8  320.86   48.23
  -6  -4   8  479.79   72.25
  -6   4   8  372.06   49.06
  -3   4  -9  101.01   14.13
   3   4   9   53.94   19.10
   3  -4   9   64.87   21.51
   3  -4   9  104.92   15.44
  -5   4  -7   25.57    4.97
  -5   4  -7   17.17   16.51
   5   4   7    4.94   10.60
   5  -4   7   31.56   12.60
   5  -4   7   25.41    6.49
   2  -1  17   31.27   18.41
   2   1  17   26.41   13.90
   2  -1  17   44.33   12.63
   2   1  17   25.92   14.36
  -2   1 -17   46.38   16.68
   0   0  18   26.10   10.40
   0   0  18   31.66   12.78
   0   0 -18   32.35   10.95
   6  -1 -17  206.38   46.19
  -6   1  17  182.25   30.02
  -6  -1  17  249.32   34.04
   6   1 -17  238.09   43.19
  12   0   6   11.88    4.22
 -12   0  -6    8.60   10.26
   1  -3  14   18.96   12.90
  -1   3 -14   30.98    7.04
   1  -3  14   28.86   13.11
   1   3  14   10.17   21.34
   1   3  14   11.40   12.52
  -9  -3  -6   44.39    7.86
  -9   3  -6   16.60   31.89
   9   3   6   12.77   19.84
  -9  -3  -6   30.15   16.99
  11   0 -13    4.88    9.50
 -11   0  13    7.49   10.61
 -12  -2  -2   -1.03    4.06
  12   2   2   -0.48    3.12
 -12   2  -2    3.32    6.16
 -10   2  12    9.18   11.23
  10  -2 -12    8.83    6.85
 -10  -2  12   15.16    9.00
  10   2 -12   21.27   12.75
   3   0  17   -0.71    5.72
   3   0  17    1.29    4.53
  -4  -4  10   91.67   28.70
  -4   4  10   33.60   14.65
  -4   4  10   64.75   10.89
   4   4 -10   95.43   20.98
  -4   4  10   47.73   13.97
  -4  -4  10   55.07   18.85
  -7   0  17   80.54   29.38
   7   0 -17   74.80   17.51
  -8   4   2   -0.39    1.74
  -8  -4   2    4.58    4.70
  -8   4   2    0.32    4.26
  -8   4   2    0.47    2.22
   8   4  -2    1.01    3.09
 -13   0  -3   42.15   10.33
  13   0   3   15.88    9.22
 -13   0  -3   17.68   23.17
  -9  -3  10    3.11    5.98
   9   3 -10    3.92    7.78
  -9   3  10    1.05    5.46
  -8   4   0   45.86   44.23
  -8  -4   0   80.56   22.95
   8   4   0   85.74   18.43
   2  -2  16  208.14   34.36
   2   2  16  143.17   14.99
   2   2  16  114.32   30.39
  -2   2 -16  233.90   31.95
   2  -2  16  143.23   45.70
  -2   4 -10    3.72    4.21
   2   4  10   -0.47    9.35
   2  -4  10    2.99    4.87
   2  -4  10    2.53    6.36
 -10  -2  -8   15.47    8.12
  10   2   8   14.80    8.03
 -10   2  -8   19.31   28.00
  -6   4  -6  364.08   58.06
   6  -4   6  313.18   45.93
   6   4   6  302.16   42.74
  -3  -1  18   -0.58    7.63
   3  -1 -18    4.65    6.17
  -3  -1  18    8.49   11.06
  -3   1  18    8.58   11.35
   3   1 -18    5.91    9.14
  -7   4   7   28.68   15.88
  -7   4   7   25.33   21.25
  -7   4   7    8.30   14.58
   7   4  -7   83.52   14.22
  -7  -4   7   83.31   18.78
  13  -1   2   28.86    6.90
 -13  -1  -2   57.19   17.32
 -13   1  -2   26.96   31.94
  13   1   2   57.82   10.17
 -11  -1  -8    7.64    5.48
  11  -1   8    5.71    2.98
  11  -1   8    3.15    2.92
 -11   1  -8    9.58   14.61
  11   1   8   -0.04    6.76
  -1  -1  18   78.46   31.00
  -1  -1  18   67.25   19.37
  -1   1  18   81.32   32.68
   1  -1 -18   77.09   17.92
  -1   1  18   76.51   23.71
   1   1 -18   97.15   25.66
  -8   4   4    7.26    8.18
   8   4  -4   12.39    6.50
  -8  -4   4   12.99   14.72
  -8   4   4    0.73    4.50
  -8   4   4    5.11    5.46
   5   3 -14  264.29   38.77
  -5  -3  14  238.97   48.47
  -5   3  14  115.62   29.04
  11   3  -2    8.04    6.62
 -11   3   2    3.34   17.46
 -11  -3   2   10.29    8.57
  -1   4  11   16.00   10.87
  -1   4  11   17.91    4.90
  -1   4  11    8.15   20.82
  -1  -4  11   27.31    9.70
  -1  -4  11   23.08   22.66
   1   4 -11   28.24    7.14
  -6  -2  16   72.59   28.28
  -6   2  16   20.71   25.80
   6   2 -16   87.92   22.56
   6  -2 -16   38.84   24.66
   6  -3  11   39.67    9.20
  -6   3 -11   45.67    7.25
   6   3  11   37.41   13.91
 -13   0   9   11.98   10.86
  13   0  -9   11.86    5.91
   5  -3  12   12.78    5.36
   5   3  12   15.97    9.36
  -5   3 -12   20.56    6.04
   5   3  12   12.90   11.97
 -11   3   4   17.04    7.46
 -11   3   4   22.96   26.44
 -11  -3   4   64.08   14.84
 -11   3   4   18.15    5.53
  11   3  -4   62.81   12.01
  12  -2  -8   18.05    9.78
 -12  -2   8   17.07   18.36
  12   2  -8   29.05   14.23
 -12   2   8   16.02    5.48
 -13  -1   8   69.94   25.10
 -13   1   8   50.36   16.76
  13   1  -8   61.93   12.80
  13  -1  -8   54.18   17.58
   0  -5   1   22.48   11.60
   0   5   1    8.95    8.24
   0  -5  -1   -0.02   12.68
   0   5  -1   33.10   13.09
   0  -5  -1   30.07   12.56
   0  -5   1   34.59    8.76
  12  -1 -11   16.41   12.19
  12   1 -11   28.89   14.39
 -12  -1  11   20.77   17.02
 -12   1  11   17.25   12.88
   1   2 -17   92.73   22.49
  -1   2  17   44.99   18.09
  -1   2  17   35.82   10.22
  -1  -2  17   61.63   18.70
  -1  -2  17   98.58   27.40
  -3  -2  17   36.26   17.16
  -3  -2  17   46.33   13.08
  -3   2  17   21.42   14.46
  -1   5   0   18.99   10.49
  -1  -5   0   18.90   10.79
  -1  -5   0   24.23   17.73
   1  -5   0   19.78   11.58
   1   5   0   10.74    7.12
   1  -5   0   -1.56    9.62
  11   3   0  133.88   21.40
 -11  -3   0  132.75   44.29
 -11   3   0  118.40   32.24
   7   3  10   54.56   15.89
  -3   4  11    7.61    6.27
  -3   4  11    5.56   14.22
  -3   4  11    8.41    7.97
  -3  -4  11   11.21    8.63
   3   4 -11   27.83    9.89
  -3  -4  11   13.77   10.19
  -7   1 -14   99.44   25.73
   7   1  14   66.34   23.55
   7   1  14   55.17   17.56
   7  -1  14   55.09   14.10
  11   0   9    0.81    4.00
  11   0   9    2.12    2.45
 -11   0  -9    1.89    9.16
  -8  -4  -2   75.41   21.95
   8   4   2   72.15   27.51
  -8   4  -2   23.26   38.25
   4  -3  13  230.33   23.99
   4   3  13  130.73   33.96
  -4   3 -13  192.56   17.90
   4   3  13  147.64   29.31
  -2  -3  15   16.08   25.42
   2   3 -15   43.84   15.18
  -2   3  15    5.89   23.09
  -2  -3  15   40.42   19.74
  11   2 -11  152.38   21.98
 -11  -2  11  153.42   26.18
 -11   2  11   87.81   26.27
  11  -2 -11   80.06   28.17
   1   5  -2  244.32   38.10
  -1  -5   2  187.03   38.26
  -1   5   2  131.11   34.31
   1  -5  -2  149.15   30.68
  -1  -5   2  208.74   32.57
   6   1  15  -14.51   16.74
   6   1  15   72.17   15.70
   6  -1  15   -0.15    9.46
   8   1  13  171.38   33.67
   8  -1  13  138.31   23.32
   8  -1  13  105.09   18.59
   8  -1  13  162.50   36.65
   8   1  13  107.37   25.99
  -8  -1 -13  198.50   30.01
  -8   1 -13  173.69   54.07
 -12   0  12  229.98   45.86
  12   0 -12  224.86   29.67
  -1   4 -11  146.92   20.90
   1   4  11   60.81   34.20
   1  -4  11   84.66   27.37
   1  -4  11  131.49   24.90
   1   4  11   38.60   40.93
  -7   4  -5  162.72   36.33
   7  -4   5  143.04   27.26
  -7  -4  -5  120.03   12.19
   7   4   5  140.58   25.47
  -7  -4  -5  211.71   35.84
  -1  -5  -2    0.55   10.99
  -1  -5  -2   14.27    8.39
  -1   5  -2   12.54    8.96
   1  -5   2    9.54    7.60
   1   5   2    8.73   11.04
  -2   5   1   59.12   18.30
  -2  -5   1   47.93   22.18
  -2  -5   1  210.59   40.10
   2   5  -1   95.04   26.00
   2  -5  -1   44.55   22.05
   6   0 -18  269.73   35.65
  -6   0  18  274.07   40.02
 -10  -3   9   90.29   20.90
 -10   3   9   41.96   16.57
  10   3  -9   89.85   16.59
  14   0  -2    7.45    6.04
 -14   0   2    5.32    4.09
  14   0  -4    1.68    4.75
 -14   0   4    1.94    3.18
  -5   1  18   12.56   17.02
   5   1 -18   21.45   14.62
   5  -1 -18   14.11    9.61
  -5  -1  18   12.49   17.01
   0   5   3   84.16   26.62
   0   5  -3   94.99   22.77
   0  -5   3   97.98   20.29
   0  -5   3   81.60   18.14
  -2   5  -1  182.96   31.75
  -2  -5  -1  250.99   65.28
  -2  -5  -1  194.70   32.90
   2   5   1  182.43   42.22
  -8   4   6  132.04   38.84
  -8   4   6   68.60   20.89
  -8  -4   6  189.81   46.94
  -8   4   6   78.34   18.92
   8   4  -6  181.25   35.30
   0   3  15   37.12   43.45
   0  -3  15  154.99   33.05
   0  -3  15   92.10   27.94
   0   3 -15  162.14   19.15
   0   3  15   85.83   25.73
 -11  -3   6   48.82   13.31
 -11   3   6   15.37   23.69
  11   3  -6   61.19   17.03
 -11   3   6    7.73    7.22
 -10  -3  -5  153.27   30.20
  10   3   5   87.36   33.59
 -10   3  -5  144.59   41.38
   2   0  18   79.94   29.79
   2   0  18   56.97   22.56
   8   3   9   78.28   19.39
   8  -3   9  101.57   35.10
  -1   1 -18   41.32   11.44
   1  -1  18   43.18   21.60
   1  -1  18   35.01   12.25
   1   1  18   26.36   13.98
   1   1  18   28.94   15.03
   5   1  16   95.30   41.36
   5  -1  16  117.98   27.35
   5   1  16  130.53   23.87
   5   1  16  138.69   20.58
 -12   2  -4    6.24   13.75
 -12  -2  -4   14.89    8.54
  12   2   4   13.30   11.21
  -9  -1 -12    4.64    3.42
  -9   1 -12    4.62   12.25
   9  -1  12    1.68    3.35
   9  -1  12   -1.31    4.18
   9   1  12    3.88    8.77
   9   1  12    3.95    4.16
   7   2  13   44.81   16.95
   7   2  13   62.13   12.87
   7  -2  13   35.63    7.97
   7  -2  13   69.72   15.20
 -13   2   3  116.19   12.46
 -13   2   3  112.22   33.92
  13  -2  -3  127.04   19.65
  13   2  -3  149.34   21.10
 -13  -2   3  151.54   25.67
  -4   3  15  105.32   46.59
   4   3 -15  230.68   36.52
  -4  -3  15  148.49   38.96
  -4  -3  15  221.53   31.05
  -2   5   3    7.49    7.04
  -2   5   3    5.14    9.53
  -2  -5   3   12.12   13.19
  -2  -5   3   15.62    9.58
   2   5  -3    9.04    6.18
   6  -2  14    1.72    3.51
   6   2  14    4.70    5.30
   6  -2  14    5.42    5.99
   6   2  14   11.54   12.24
   3   3  14   22.52   25.62
   3   3  14   88.21   33.84
   3  -3  14   14.20   27.96
   3  -3  14   47.92   13.61
  -3   3 -14   49.62   13.73
 -11   3  -2  121.44   34.33
  11   3   2  136.13   33.90
 -11  -3  -2  123.20   26.55
  14   0   0   33.83   11.16
 -14   0   0   37.56   12.63
   1   2  17   52.09   20.32
   1   2  17   65.36   12.35
  -1   2 -17   69.49   13.57
   1  -2  17   58.93   15.65
   1  -2  17   74.74   29.92
  -5  -2  17   46.83   25.53
  -5   2  17   23.18   15.34
   5  -2 -17   38.58   14.30
   5   2 -17   67.37   20.65
  14   0  -6  320.05   43.60
 -14   0   6  315.08   47.57
 -11  -2  -7    1.27    3.77
  11   2   7    0.81    3.14
 -11   2  -7   -1.82   11.92
   1   5  -4  193.25   22.12
  -1  -5   4  124.72   24.02
  -1   5   4  100.11   21.66
  -1  -5   4  165.95   28.36
  -3   5   0   24.40    9.31
   3  -5   0   68.98   20.60
  -3  -5   0   47.01   10.58
  -3  -5   0   48.49   32.31
   3   5   0   59.96   14.46
 -13  -2   1   69.63   25.64
 -13   2   1   21.90   22.22
  13   2  -1   76.49   20.83
   8   2  12  151.66   23.28
   8  -2  12  164.73   25.05
   8  -2  12  114.66   14.95
   8   2  12  134.68   27.89
  -3   0  19  168.24   47.54
   3   0 -19  168.54   43.55
  -3   5   2    6.16    6.69
  -3  -5   2   21.61    9.07
  -3  -5   2   40.91   21.42
  -3   5   2   16.36    9.00
   3   5  -2   20.02   14.39
   9  -1 -16   85.26   29.15
   9   1 -16  129.72   31.14
  -9   1  16   84.19   21.75
  -9  -1  16  125.32   36.59
  13  -1   4    3.17    2.43
 -13  -1  -4   10.21    8.08
  13   1   4    5.49    5.81
 -13  -1  -4    5.18   10.71
 -13   1  -4    2.31   15.06
 -13  -2   5   44.12   13.56
  13   2  -5   44.25   10.79
 -13   2   5   27.75    8.23
  13  -2  -5   26.96    9.82
  -6  -4  10   22.32   14.34
   6   4 -10   39.84    9.43
  -6   4  10   15.63   15.55
  -6   4  10    4.85    8.83
  -6   4  10   14.60   12.73
  -6  -4  10   17.73   21.82
   2  -5   3  113.90   27.37
  -2  -5  -3   69.65   16.53
   2   5   3   75.05   19.18
  -2  -5  -3   74.69   27.42
  -2   5  -3  106.37   19.77
  10   1 -15  176.19   24.13
  10  -1 -15  113.44   22.47
 -10  -1  15  169.80   43.50
 -10   1  15  119.93   25.04
  -1   0  19   46.01   27.49
  -1   0  19   39.66   14.21
   1   0 -19   66.18   23.72
   5   2  15    6.03    6.34
  -5   2 -15    5.76    3.52
   5   2  15    2.90   13.10
   5  -2  15    2.12    4.71
   5  -2  15    8.06    6.93
 -13   0  -5    1.39    5.13
  13   0   5    0.72    3.00
   1  -5   4    9.18   11.89
   1  -5   4    6.96    6.20
  -1   5  -4    7.19    7.13
   1   5   4    2.48    9.89
 -12  -1  -7   21.09    9.67
  12  -1   7   19.34    4.42
  12  -1   7   17.33    3.97
  12   1   7    1.23    6.43
 -12   1  -7   15.85   23.72
  14   1  -3   90.81   23.58
 -14   1   3   98.03   15.95
 -14  -1   3   94.41   27.87
  14  -1  -3  102.96   16.55
  -2  -4  12  119.73   46.10
   2   4 -12  209.81   28.68
  -2   4  12   98.47   13.06
  -2   4  12   98.81   23.43
  -2  -4  12  218.41   39.35
  -2   4  12   68.57   40.76
   7   0  15   84.98   17.01
   7   0  15   77.02   26.46
   7   4  -9  143.18   28.14
  -7   4   9   94.09   27.54
  -7   4   9   11.45   21.72
  -7  -4   9  148.36   26.44
  -7   4   9   55.57   23.80
  -9   4   1    7.40    5.28
  -9   4   1    0.08    1.07
   9   4  -1    1.96    6.08
  -9  -4   1   10.99    9.22
   5   4 -11  110.05   16.15
  -5   4  11   11.84   27.08
  -5   4  11   69.42   20.65
  -5   4  11   57.20   29.01
  -5  -4  11   64.03   41.42
  -5  -4  11  115.57   22.66
  -9  -4   3  284.56   64.30
  -9   4   3  197.96   44.06
   9   4  -3  234.95   32.45
  -8   0 -14   71.29   28.46
   8   0  14   46.30   17.30
   8   0  14   35.49   11.29
  -3  -5  -2   62.72   15.68
  -3  -5  -2   96.25   23.76
   3   5   2   62.94   15.49
  -3   5  -2   35.51    8.95
  -3   5  -2   75.98   21.60
   0   4 -12   11.80    7.43
   0  -4  12    6.98    9.02
   0   4  12    2.48   15.37
   0   4  12    3.34    7.81
   0  -4  12    6.53   10.07
  -8   4  -4   10.22   29.56
  -8  -4  -4   32.61    9.90
   8   4   4    7.00   18.97
  -8  -4  -4   23.97   27.19
  -5   4  -9   62.84    9.01
   5   4   9   42.31   17.48
 -14   1   1   89.58   14.20
 -14  -1   1   80.73   25.68
  14  -1  -1   83.39   13.19
  14   1  -1   85.27   20.99
 -14   1   1   71.61   29.40
   4   1  17   13.25   20.07
   4  -1  17   12.97    8.50
   4   1  17   20.52    9.96
   4  -1  17   71.26   17.40
  10  -1  11    0.43    2.34
 -10   1 -11    4.27   10.03
  10   1  11    1.80    6.41
  10   1  11   -0.33    4.80
 -10  -1 -11    4.11    4.75
  10  -1  11    0.31    2.65
  -8  -1  17   13.66    9.40
   8  -1 -17   10.63    8.14
  -8   1  17    9.42   14.87
   8   1 -17   10.99    8.27
  14   1  -5   27.12   14.20
  14  -1  -5   31.71   10.67
 -14   1   5   32.85   10.87
 -14  -1   5   25.75   18.11
   9   3   8   11.80   11.41
  -9   3  -8   33.63   36.14
  -9  -3  -8   36.05    6.29
   4   4  10    2.59    9.41
   4  -4  10    1.78    3.35
  -4   4 -10    2.74    3.13
   0  -5   5  157.50   41.42
   0  -5   5  144.49   41.28
   0   5   5  109.15   35.79
   0   5  -5  185.24   21.90
  -8   3  13   14.57   20.66
   8   3 -13   60.31   21.74
  -8  -3  13   57.64   18.18
   6   0  16   53.32   25.28
  12   2 -10  227.09   39.34
 -12  -2  10  220.19   49.78
  12  -2 -10  126.78   29.26
 -12   2  10  128.60   20.44
  -9  -2 -11   25.48    8.21
   9  -2  11   23.78   12.31
   9   2  11   12.81   10.37
  -9   2 -11  103.36   32.83
 -11   1  14  123.21   38.97
  11  -1 -14  119.70   35.58
 -11  -1  14  170.03   28.76
  11   1 -14  169.89   24.19
  13   1 -10    5.75    8.78
 -13   1  10    2.13    8.01
 -13  -1  10    7.69   11.13
  13  -1 -10    5.27    4.42
  12   0   8  164.83   25.16
 -12   0  -8  210.26   60.29
  -3  -5   4   44.43   21.48
  -3   5   4   32.28   18.26
  -3  -5   4   44.40   30.76
   3   5  -4   51.51   12.13
  -3   5   4   18.04   16.12
 -13  -2  -1   16.98    8.91
 -13   2  -1    5.15   13.97
  13   2   1   12.28   11.10
   9   0  13    1.61    3.15
   9   0  13    2.74    5.58
  -9   0 -13    3.56    8.89
  -7  -3  14  175.38   30.67
  -7   3  14   85.33   38.81
   7   3 -14  183.19   24.87
  -6   4  -8    4.78    9.01
  -6   4  -8    3.84    2.29
   6  -4   8    1.53    2.60
   6   4   8    0.73    5.40
 -13   0  11  437.34   69.93
  13   0 -11  466.30   65.84
  -2   5   5   10.68    9.64
  -2   5   5   43.46   14.61
  -2  -5   5   17.85   14.54
  -2  -5   5   29.73   21.61
   2   5  -5   54.90   15.67
  -4   5   1   27.37   23.04
   4   5  -1   46.71   12.81
  -4   5   1    8.51   12.30
  -4  -5   1   36.17   18.07
  -4  -5   1   53.16   18.00
  -9  -3  12  153.21   44.67
   9   3 -12  145.99   34.05
  -9   3  12   84.24   28.51
  11   3  -8   65.25   18.71
 -11  -3   8   63.95   16.57
 -11   3   8   25.13    6.76
 -11   3   8   20.55   16.78
   9   4   1    7.39   15.64
  -9  -4  -1   28.62   22.39
  -9   4  -1   15.56   26.30
  -4   2 -16   14.26    5.36
   4   2  16    8.14   18.33
   4  -2  16    8.89   15.95
   4  -2  16    5.02    8.36
   4   2  16   14.99    9.65
  -2  -1  19   20.05   19.23
  -2  -1  19   26.20   19.14
   2  -1 -19   21.34   10.86
  -2   1  19   17.56   20.75
   2   1 -19   30.43   15.39
  -2   1  19    9.75    9.27
   2   3  15   14.64   22.51
   2   3  15    8.71   18.81
   2  -3  15    7.93   14.02
  -2   3 -15   23.37   10.71
   2  -3  15   24.04   12.31
  -5   0  19  297.64   66.32
   5   0 -19  290.64   57.62
   3   4  11   76.23   27.66
  -3   4 -11   37.12   11.12
   9   4  -5    1.63    4.67
  -9   4   5    2.09    3.72
  -9   4   5    5.10    9.55
  -9   4   5    0.67    3.03
  -9  -4   5    1.17    6.29
   8   4  -8    5.76    9.29
  -8  -4   8    4.47   13.96
  -8   4   8    3.57    9.62
  -8   4   8    3.39    6.34
  -8   4   8    4.33    4.35
 -14   0  -2    0.22    9.51
  14   0   2    0.55    3.14
 -14   0  -2    1.84    3.67
   9   2 -15   23.62   14.14
  -9   2  15    6.50   14.30
  -9  -2  15   14.76   18.55
   9  -2 -15   11.67   14.28
   4  -5   1    2.91    4.42
  -4  -5  -1    2.69    5.02
  -4  -5  -1    4.20    6.87
  -4   5  -1    4.09    5.86
   4   5   1   -6.89    8.03
  -4   5  -1   -0.16    4.01
  13  -2  -7   73.73   18.79
  13   2  -7  169.41   20.62
 -13   2   7   56.78   12.22
 -13  -2   7  158.62   38.46
  -4  -4  12   15.04   13.00
   4   4 -12   11.25    8.86
  -4  -4  12    8.18    8.80
  -4   4  12   -1.03    6.74
  -4   4  12    4.24    5.75
  -4   4  12    4.98   11.68
  10   0 -16   84.54   18.78
 -10   0  16   94.07   34.45
  14   0  -8   32.64   14.28
 -14   0   8   29.69   10.30
  -4  -5   3   55.66   23.96
  -4   5   3   55.39   15.40
  -4   5   3   15.02   17.55
  -4  -5   3   82.78   36.89
   4   5  -3   86.69   15.90
   5   0  17    5.36    7.00
   5   0  17    7.07    5.78
  -2   2  18   -0.49   15.43
  -2  -2  18    7.49    9.22
  -2  -2  18   10.55   12.32
   2   2 -18    9.12   10.01
  -9   0  17    4.59   13.04
   9   0 -17    6.83   11.03
 -10  -2  14  162.99   45.91
  10   2 -14  162.45   22.90
 -10   2  14   84.26   32.62
  10  -2 -14  100.87   22.37
   8  -2 -16   94.28   22.55
   8   2 -16  154.98   22.18
  -8  -2  16  152.50   27.98
  -8   2  16   92.02   23.27
   1   0  19   30.59   15.23
   1   0  19   37.34   19.52
  -1   0 -19   42.81   12.94
   1   5  -6    6.83    6.96
  -1  -5   6    6.58   11.33
  -1   5   6   -4.62    8.90
  -1  -5   6    5.43   12.63
  -4  -1  19   15.93   10.79
   4  -1 -19   14.80    9.88
   4   1 -19   19.32   15.05
  -4   1  19    9.20   18.70
 -14  -1  -1   52.59   17.56
 -14   1  -1   30.32    7.78
  14   1   1   54.42   15.62
  14  -1   1   34.56    7.85
 -14   1  -1   21.87   21.15
  -1  -3  16   22.87   13.35
  -1   3  16    3.83    4.20
  -1   3  16    3.50   17.58
   1   3 -16   14.81    6.25
  -1  -3  16   12.10   17.93
   2   5   5    9.73   10.42
   2  -5   5   27.73    8.88
   2  -5   5   22.45   12.14
  -2   5  -5   34.67   10.73
 -11   3  -4    0.53   15.32
  11   3   4    7.96   14.54
 -11  -3  -4   24.43   11.30
  -7  -1  18    0.53    9.20
   7   1 -18    2.65    4.34
   7  -1 -18    2.03    7.50
  -7   1  18    0.15    5.14
   7   4   7  109.22   24.84
  -7   4  -7  145.33   38.00
 -14   1   7   92.88   20.32
 -14  -1   7  107.86   20.40
  14   1  -7   91.91   16.89
  14  -1  -7  105.34   15.60
 -11   0  15  135.72   25.92
  11   0 -15  142.28   38.24
  -6  -3  15   15.02   17.63
   6   3 -15   18.41    8.15
  -6   3  15    4.76    9.47
  12   3  -3   35.07    7.97
 -12  -3   3   21.87   17.24
 -12   3   3   19.53   12.71
 -12   3   3    5.88    2.42
 -12   3   3    6.64    3.01
   3   3 -16  139.41   28.48
  -3   3  16   26.22   40.45
  -3  -3  16  142.64   36.78
  -3  -3  16   80.50   27.78
  -3  -5  -4   18.46    5.51
   3  -5   4    3.35    8.35
   3  -5   4   22.21    8.20
  -3   5  -4    1.04    4.09
   3   5   4    6.57    7.57
 -10   0 -12   33.56   11.36
  10   0  12    0.86    9.40
  10   0  12   18.06    9.87
   0   1  19   16.16   13.03
   0   1  19   20.50   22.56
   0   1 -19   31.70   17.21
   0  -1  19   23.24   19.27
   0  -1  19   29.15   19.76
  10   3 -11  202.01   27.05
 -10  -3  11  213.78   36.23
 -10   3  11  115.35   30.80
 -12   3   1   27.84   38.47
  12   3  -1   51.28   13.96
 -12  -3   1   47.85   18.82
  12   1 -13   65.13   22.03
 -12   1  13   35.02   20.36
 -12  -1  13   51.99   16.60
  12  -1 -13   37.38   13.00
 -10  -2 -10   47.31   10.26
  10   2  10    4.29   10.69
 -10   2 -10   51.27   34.43
   1  -5   6  146.71   42.62
   1   5   6   74.02   34.73
  -1   5  -6  158.50   25.68
   1  -5   6  137.13   34.72
  -4  -2  18    8.23    9.54
  -4   2  18    2.80   13.44
  -4  -2  18    4.49   12.11
   2   4  12   90.55   23.81
   2   4  12    3.47   48.06
   2  -4  12  103.10   44.50
   2  -4  12  107.04   14.98
  -2   4 -12  185.80   21.86
   3  -1  18   31.67   22.01
   3   1  18   18.49   13.92
   3  -1  18   22.11   17.74
  -3   1 -18   35.56   10.39
   3   1  18   25.15   12.10
 -11   1 -10  101.49   38.84
  11   1  10    0.87   19.08
  11  -1  10   64.76    9.68
 -11  -1 -10   57.22   17.90
   0  -2  18    4.81    7.53
   0  -2  18    7.21    5.93
   0   2 -18    4.56    4.86
   0   2  18    1.25    4.97
   0   2  18    0.92   13.19
 -12  -2  -6    2.07    4.59
 -12  -2  -6    0.61    4.64
 -12   2  -6    1.67    6.99
  12   2   6   -0.16    5.48
  -8   0  18   52.11   17.83
   8   0 -18   53.69   15.60
 -10   3  -7   92.52   34.49
  10   3   7   87.03   21.12
 -10  -3  -7  111.49   14.93
   4  -5   3  133.01   23.66
  -4  -5  -3  209.18   37.55
  -4  -5  -3  145.31   20.85
  -4   5  -3   78.54   17.67
   4   5   3  111.05   37.02
 -12   3   5   93.83   15.03
 -12   3   5  166.78   38.31
 -12  -3   5  249.45   55.01
  12   3  -5  256.60   29.22
  11  -2 -13  119.61   36.76
  11   2 -13  194.86   39.82
 -11  -2  13  196.66   31.65
 -11   2  13  110.59   36.39
   1   4 -13   56.53   16.46
  -1  -4  13   26.93   32.23
  -1   4  13   19.75   25.95
  -1   4  13    9.69   31.52
  -1  -4  13   57.09   14.26
  -3   2 -17  209.56   26.31
   3  -2  17  261.88   58.17
   3   2  17  167.57   18.85
   3  -2  17  209.74   37.59
   3   2  17  161.03   35.99
   3   2  17  178.19   33.28
  -3   5   6   78.87   31.58
  -3  -5   6  184.22   50.12
  -3   5   6  123.33   27.66
  -3   5   6   75.57   34.00
   3   5  -6  201.02   35.41
  -3  -5   6  129.48   26.86
   9   4   3    0.27   14.61
  -9   4  -3    5.95   22.87
  -9  -4  -3   20.38   12.76
  -5   5   2   53.13   18.46
  -5   5   2   22.10   17.57
  -5  -5   2  146.46   28.54
  -5   5   2  108.52   36.41
  -5  -5   2  114.63   28.32
   5   5  -2  189.45   31.19
  -7   2  17   18.87   25.47
   7   2 -17   62.43   14.04
   7  -2 -17   25.46   23.10
  -7  -2  17   29.86   28.41
  -5  -5   0   71.28   20.08
  -5   5   0   48.66   16.54
  -5   5   0    0.73   10.87
  -5  -5   0   48.49   16.03
   5   5   0   82.76   23.93
   4   5  -5   75.62   19.72
  -4   5   5   10.43   15.45
  -4   5   5   33.11   17.61
  -4   5   5   14.18   15.27
  -4  -5   5   43.38   30.27
  -4  -5   5   45.18   22.20
 -13   2  -3    2.30    7.41
  13   2   3    0.35    5.42
 -13  -2  -3    2.01    7.66
  -9   4   7   20.10   11.49
  -9  -4   7   50.16   15.49
   9   4  -7   50.71   11.47
  -9   4   7   13.59   19.86
  -9   4   7   -8.84    9.59
   4   0  18    0.10    3.31
   4   0  18    3.51    6.80
  12   0 -14    0.97    4.56
 -12   0  14    3.34    5.14
  -3  -4  13   32.82   11.13
   3   4 -13   19.52    7.42
  -3  -4  13   16.37   12.76
  -3   4  13    6.20   18.39
  -3   4  13   10.87    6.98
  -3   4  13    9.36   16.76
   0  -5   7  241.64   50.15
   0   5   7  116.55   43.10
   0  -5   7  158.44   32.11
   0   5  -7  239.72   32.94
 -12   3  -1    1.27   12.97
 -12  -3  -1    3.93    9.56
  12   3   1    0.05    6.40
 -13   1  -6  187.77   35.47
  13  -1   6   76.82   10.07
  13   1   6  102.88   23.20
 -13  -1  -6   66.40   24.68
   1  -3  16   29.21   15.29
  -1   3 -16   26.18   12.00
   1   3  16   10.55   13.09
   1   3  16    0.67   24.47
   1  -3  16   19.87   13.67
   8  -4   6   47.75   12.89
  -8  -4  -6    0.34   17.25
   8   4   6   11.03   11.81
  -8   4  -6   -0.30   18.57
   2   5  -7  202.22   23.79
  -2   5   7  175.24   29.15
  -2  -5   7  138.72   45.57
  -2   5   7   77.46   26.13
  -2  -5   7  211.20   34.05
  -2   5   7   98.86   23.76
   6   3  13    8.74   10.36
  -6   3 -13    3.05    3.69
   6  -3  13    3.24    3.15
   6   3  13    7.26   14.12
   7  -3  12   74.11    9.18
   7   3  12  117.06   20.53
  -5   3  16    7.22   24.34
  -5  -3  16   20.95   19.43
  -5  -3  16   43.59   15.32
   5   3 -16   39.74   11.37
  -5  -5   4   65.17   21.15
  -5   5   4   12.11   15.11
  -5   5   4   16.71   15.06
   5   5  -4   68.34   14.54
  -5  -5   4   62.14   23.08
  -5   5   4   35.40   13.90
 -13  -2   9   36.99   27.13
  13  -2  -9   29.93   14.17
  13   2  -9   61.05   20.16
 -13   2   9   32.21   13.89
  11   0  11    0.68    9.28
 -11   0 -11   36.02   12.22
  11   0  11   24.56    9.29
  -5   5  -2    1.52    6.14
   5  -5   2   21.56    9.07
  -5  -5  -2   33.88   23.08
   5   5   2    4.17   15.34
  -5  -5  -2   19.61    8.28
 -10  -4   2  106.50   31.80
 -10   4   2  108.78   51.05
  10   4  -2  110.20   33.47
  13   0   7   18.15    8.16
 -13   0  -7   11.62   22.83
  -2   0  20    2.94    8.98
  -2   0  20    2.28    9.96
   2   0 -20    0.42    8.65
 -14   0  -4    8.04   10.97
  14   0   4    0.79    3.67
   6   1 -19    7.88   13.73
   6  -1 -19    9.97    9.09
  -6   1  19   -0.32   16.52
  -6  -1  19   14.15   10.15
   5   3  14  115.51   23.24
   5   3  14   12.78   16.66
   5  -3  14   17.26    8.43
  -5   3 -14   35.25   10.16
   1  -4  13   83.13   27.41
   1   4  13   48.33   21.41
  -1   4 -13  115.06   20.10
   1  -4  13  112.09   25.37
   1   4  13   -0.64   43.31
 -14  -1  -3   31.66    8.11
 -14   1  -3   10.02   16.54
  14   1   3   28.02    6.93
 -14  -1  -3    5.10   12.56
  14  -1   3    9.40    4.72
  -7   4  11    6.13   10.41
  -7  -4  11   13.58   10.68
   7   4 -11   23.02   11.95
  -7   4  11    3.25    6.68
  -7   4  11    8.10    7.50
  11   3 -10  115.26   33.55
 -11  -3  10  113.17   29.52
  14   0 -10   -0.65    5.35
 -14   0  10    1.98    3.60
  12   3  -7   95.25   16.33
 -12   3   7   31.76   12.40
 -12  -3   7   88.04   35.59
 -12   3   7   26.88   38.44
  14  -1  -9   12.02   11.01
  14   1  -9   21.66    8.37
 -14  -1   9   22.62   17.63
 -14   1   9   15.76    7.13
   7   0 -19    0.23    3.89
  -7   0  19    1.87    7.82
 -11  -2  -9   32.43    8.15
  11   2   9    4.72   17.05
 -11   2  -9   67.15   21.02
  -6  -4  12   24.17   15.77
  -6   4  12   18.02    7.73
   6   4 -12   43.78   15.28
  -6   4  12   16.41   10.73
  -6  -4  12   31.55   22.84
  -6   4  12    3.68   16.88
 -15   0   3    1.31    4.41
  15   0  -3    0.70    3.99
 -10   4   4    4.50    7.06
  10   4  -4  106.37   21.95
 -10   4   4   18.03   28.68
 -10  -4   4   72.46   18.32
   8   3  11    2.75    6.88
   8  -3  11    9.00    7.96
 -10   4   0    5.48   10.32
 -10  -4   0    9.31    9.88
  10   4   0   -0.22   11.40
 -13  -1  12   47.19   14.01
  13  -1 -12   18.29   17.52
  13   1 -12   40.86   19.58
 -13   1  12   29.21   11.50
   4   0 -20   15.76   10.68
  -4   0  20   -0.57    7.70
  12  -2 -12   18.41   19.16
  12   2 -12   57.47   13.90
 -12  -2  12   58.52   18.26
 -12   2  12   20.28   17.58
  -3   5  -6    6.12    4.54
   3  -5   6    3.10    3.56
   3   5   6    1.87    5.78
   8   4 -10   40.34   10.53
  -8  -4  10   52.55   15.36
  -8   4  10   10.78    9.19
  -8   4  10    8.42    8.04
  -8   4  10   12.57    9.60
  15   0  -5   27.73   12.38
 -15   0   5   27.19    9.00
   6  -2 -18   41.08   15.33
  -6   2  18   -0.16   17.19
  -6  -2  18   58.94   18.05
   6   2 -18   79.03   15.29
 -14   2   2   -0.35   23.35
 -14  -2   2   60.82   16.09
 -14   2   2   38.76    5.34
  14  -2  -2   36.07    6.17
  14   2  -2   53.66   19.40
 -14   2   4   -1.00    7.33
 -14   2   4    0.99    2.46
 -14  -2   4    1.13    4.65
  14  -2  -4    0.84    2.99
  14   2  -4    2.17    3.43
  -2   1 -19   41.53   18.31
   2   1  19   37.90   15.54
   2  -1  19   31.89   21.53
   2  -1  19   40.09   13.01
   2   1  19   20.40   15.66
 -15   0   1   60.38   12.51
  15   0  -1   88.72   16.95
 -12  -1  -9   12.59   11.80
 -12   1  -9   28.69   12.96
  12  -1   9    5.70    3.78
  12  -1   9    8.96    3.90
  12   1   9    1.68    5.31
   2   5   7   70.58   20.64
  -2   5  -7   81.99   19.45
   2  -5   7  112.41   25.32
   4   5   5   17.71   21.21
  -4   5  -5   61.57   20.59
  -4   5  -5   19.42    5.37
   4  -5   5   43.52   14.17
   4  -5   5   53.55   12.43
  -1   5   8   -0.70    7.67
  -1  -5   8    2.43    6.43
  -1  -5   8    4.00    8.66
   1   5  -8    3.25    5.50
  -1   5   8    0.45    5.71
   6   5  -1  171.92   25.36
  -6  -5   1  186.32   52.90
  -6   5   1   36.41   16.05
  -6   5   1  129.68   28.71
  -6   5   1   62.62   16.95
  -6  -5   1  143.83   20.32
  -4   3 -15   54.34   12.67
   4  -3  15  139.96   18.03
   4   3  15  132.33   36.38
   4   3  15   97.89   29.40
   0   0  20   42.05   24.92
   0   0 -20   31.54   20.79
   0   0  20   23.55   19.46
   2   2  18   73.51   12.32
  -2   2 -18   98.30   24.29
   2  -2  18  110.00   40.08
   2  -2  18   76.82   28.04
   2   2  18   64.67   24.80
 -13   0  13   52.82   16.99
  13   0 -13   57.24   24.25
   3   0  19   30.14   27.20
   3   0  19   58.63   20.79
  -5  -4  13   20.86   11.78
  -5   4  13    7.02    9.97
  -5  -4  13    8.67   20.87
   5   4 -13   24.97    8.12
  -5   4  13   11.54    9.35
  -5   4  13    1.15    9.89
  11   3   6    6.43    7.92
 -11  -3  -6    6.76    6.46
 -11   3  -6   21.36   16.71
 -11  -3  -6   20.96   11.59
  -4  -5   7    1.48    9.00
  -4  -5   7    0.99    4.81
   4   5  -7   -0.07    3.48
  -4   5   7   -0.42    6.22
  -4   5   7   -0.07    5.36
  -4   5   7    2.59    3.10
  -6   5   3   -4.21    6.86
  -6  -5   3  138.49   20.97
  -6   5   3    2.68   14.14
   6   5  -3   10.77   11.85
  -6   5   3    0.12    7.26
  -6  -5   3    6.28   11.22
  -2  -3  17   18.97   15.71
   2   3 -17   12.26    7.30
  -2   3  17    0.40   11.84
  -2  -3  17   12.98   11.68
 -12   3  -3    0.44   18.39
  12   3   3    3.25    9.17
 -12  -3  -3    6.13   12.85
   8  -1  15    5.21    7.39
  -8   1 -15   11.45   10.77
   8   1  15    4.92    5.88
   8   1  15    5.78   12.43
   8  -1  15    3.76    5.64
  -6  -5  -1   -0.51    4.61
  -6   5  -1    4.27   10.16
  -6   5  -1    0.49    3.02
   6   5   1    3.64    4.53
  -6   5  -1    0.16    2.71
  -6  -5  -1   16.62   11.99
   5   4  11   16.44   14.41
   5  -4  11    4.89    9.58
  -5   4 -11   10.58    4.45
   5  -4  11    3.64    4.49
   9  -3  10    5.95    7.49
   9   3  10    2.60    6.05
  -9  -4  -5   73.44   14.12
  -9   4  -5   -0.65   49.99
   9   4   5   21.50   29.88
  -9  -4  -5  108.35   28.96
  -5   5   6    5.59    6.44
  -5   5   6    5.14    6.16
  -5   5   6   12.02   11.53
  -5  -5   6    8.79   11.80
  -5  -5   6   20.77   14.85
   5   5  -6   19.83    8.23
   7  -1  16   13.93   11.36
   7   1  16   26.76   12.10
   7   1  16   24.98   10.10
   3   1 -20  107.40   31.81
   3  -1 -20   98.31   35.68
  -3   1  20   94.52   25.52
  -3  -1  20   88.12   38.51
  -3  -1  20   86.52   26.65
   6  -4  10    4.67    6.47
   6  -4  10    0.77    3.92
  -6   4 -10    2.19    2.00
   6   4  10    1.36    9.16
 -10   4   6   42.07   16.00
 -10   4   6   74.08   24.44
  10   4  -6  123.09   31.96
 -10  -4   6  112.77   27.82
  14   2   0   35.19   18.93
 -14  -2   0   35.30   23.59
 -14   2   0   48.51   23.90
  -1   5  -8   86.03   13.23
   1  -5   8  134.69   38.83
   1   5   8   21.63   31.68
  -5   5  -4   22.61   16.62
   5   5   4   12.51   18.87
   5  -5   4   44.09   11.72
  -5  -5  -4   37.00    7.31
  -5   5  -4    1.62    6.18
  -5  -5  -4    4.21   18.75
 -14  -2   6  212.00   47.89
  14  -2  -6   96.87   23.02
  14   2  -6  223.62   27.91
 -14   2   6  140.96   20.56
  -3   5   8   47.25   15.69
  -3  -5   8   39.00   28.47
  -3   5   8   12.86   15.37
  -3  -5   8   75.91   30.65
   3   5  -8   80.69   20.15
  -3   5   8   43.58   14.39
  -2   4  14    0.88   32.65
  -2  -4  14   92.31   28.90
  -2  -4  14   46.56   35.60
   2   4 -14   85.67   12.87
  -2   4  14   16.05   28.74
  -2   4  14   45.09    7.39
 -10  -4  -2   13.65   14.50
  10   4   2    1.42    9.79
 -10   4  -2   -1.48   10.33
  -1  -1  20   56.20   16.93
   1   1 -20   71.62   21.89
  -1   1  20   -0.30   18.42
  -1   1  20   39.20   18.65
  -1  -1  20   51.74   16.08
   3   2 -19    7.75    8.44
  -3   2  19    0.08   13.42
  -3  -2  19    6.11   12.65
  -3  -2  19    1.96    6.27
  -9   4   9  103.39   20.94
   9   4  -9  166.15   31.04
  -9   4   9   63.86   24.70
  -9  -4   9  183.04   46.92
  -9   4   9   42.46   13.38
  15  -1  -4    4.79    5.92
 -15   1   4    5.66    6.03
  15   1  -4   10.49    8.36
 -15  -1   4    7.39   10.29
   9   1  14   59.94   22.25
   9  -1  14   43.99   15.47
  -9  -1 -14   80.23   14.14
   9   1  14   41.86   28.53
  -9   1 -14   73.88   24.54
   9  -1  14   41.43   12.83
   4   4  12   12.18   22.67
   4   4  12    1.21   17.84
  -4   4 -12   32.91    8.76
   4  -4  12   28.05    9.00
 -15   1   2   18.33    8.02
 -15  -1   2   19.93    9.07
  15   1  -2   21.67   11.44
  15  -1  -2   18.75    7.76
  15   0  -7   -0.59    3.87
 -15   0   7    2.04    4.54
  12   0  10    0.64    2.33
 -12   0 -10    2.24    3.57
  12   0  10   -1.47    2.21
  -1   2  19   23.36   12.91
  -1   2  19   11.99   28.94
   1   2 -19   49.92   18.96
  -1  -2  19   35.95   23.79
  -1  -2  19   34.17   16.44
  13   2   5   15.43   19.39
 -13   2  -5   50.40   42.35
 -13  -2  -5   27.79   20.40
 -13  -2  -5   71.88   16.33
  -9  -3  14   69.32   21.94
  -9   3  14   18.55   23.36
   9   3 -14   60.87   15.34
   6  -1  17   46.21   17.51
   6   1  17   42.13   15.14
   6   1  17   45.20   27.85
   0  -3  17   13.75   23.71
   0  -3  17   20.51   10.49
   0   3 -17   26.13    7.96
   0   3  17    0.37   13.06
   0   3  17    0.57   25.16
   4   3 -17   37.27   10.84
  -4  -3  17   17.16   23.68
  -4   3  17    1.14   24.86
  -4  -3  17   11.64   27.94
  -8  -3  15   38.58   15.02
  -8   3  15    6.22   18.96
   8   3 -15   26.98   18.34
  10   1 -17   37.59   22.53
  10  -1 -17   25.08   20.93
 -10  -1  17   45.44   17.17
 -10   1  17   31.00   23.68
   7  -4   9   25.93   11.39
  -7   4  -9    0.16   18.04
   7   4   9    6.40    9.87
  15   0   1   66.34   11.48
 -15   0  -1  119.59   30.90
 -15   0  -1   94.80   17.75
   7  -2  15    7.79    5.84
   7   2  15   18.78   12.34
   7   2  15   40.78   15.43
   7  -2  15   24.32   10.35
   0   4  14    9.10   23.93
   0   4  14   -2.55   30.61
   0  -4  14   38.66   19.47
   0  -4  14   16.39   16.81
   0   4 -14   34.73    8.63
   8   2  14   23.16   14.81
   8   2  14   16.57   19.91
   8  -2  14   21.92    9.81
   8  -2  14   12.08    5.27
   8  -2  14   14.98    4.62
 -11  -1  16   31.37   24.07
  11   1 -16   26.27   11.32
  11  -1 -16   20.33   10.66
 -11   1  16   13.67   19.01
  -6   5   5    1.79    4.98
  -6   5   5    0.12    5.32
  -6  -5   5    1.51   12.93
   6   5  -5    5.16    8.56
  -6  -5   5    3.93    5.26
  -6   5   5    1.36    5.39
   3   3  16   21.66   31.51
  -3   3 -16   19.85   13.04
   3  -3  16   30.35   15.05
   3  -3  16   66.37   17.20
   3   3  16   23.90   14.69
  -6   0  20    7.13    9.29
   6   0 -20    4.71   12.63
 -10  -3  13   28.96   27.05
  10   3 -13   35.12   18.40
 -10   3  13   14.07   15.11
  12   3  -9    2.24    4.62
 -12  -3   9    5.07   11.04
 -12   3   9    0.88    2.47
   9  -1 -18  119.29   25.67
  -9  -1  18  154.42   48.11
  -9   1  18  126.38   29.44
   9   1 -18  179.29   41.85
   6   2  16   38.36   18.37
   6  -2  16   76.52   16.42
   6  -2  16   28.13   10.69
   6   2  16   85.83   24.57
 -15  -1   6   39.18   13.52
  15  -1  -6   38.23   13.74
 -15   1   6   38.55   13.75
  15   1  -6   33.97   17.78
   4   4 -14   29.96    8.14
  -4  -4  14   20.02   19.96
  -4   4  14    4.37   11.18
  -4  -4  14   10.47   22.49
  -4   4  14    4.06   18.93
  -4   4  14    9.04    8.27
 -12   2  -8   36.84   17.22
  12   2   8    1.38   12.14
 -12  -2  -8    8.07    9.86
   5  -1 -20   42.05   21.26
   5   1 -20   51.55   19.99
  -5  -1  20   36.38   24.43
  -5   1  20   -0.10   15.59
  10  -1  13   31.34   10.21
 -10   1 -13   72.05   21.72
  10   1  13   52.11   15.41
  10  -1  13   38.08   12.65
 -10  -1 -13   61.44   17.48
  10   1  13    0.86   18.84
  -2  -5   9   19.56   10.10
  -2   5   9   10.03    8.08
  -2   5   9    6.84    8.91
  -2   5   9    2.73    9.88
  -2  -5   9   11.46   10.75
   2   5  -9   18.25   11.28
   3  -4  13    9.28    6.71
   3   4  13    6.82    9.12
  -3   4 -13    7.93    6.69
   3   4  13    2.29   20.24
 -15   1   0   25.73   34.59
  15   1   0   33.13   14.50
  15  -1   0   41.33    8.62
 -15  -1   0   26.77   17.56
 -15   1   0   22.93    7.91
 -13  -3   2   66.40   39.98
 -13   3   2    0.04   50.49
  13   3  -2  108.26   29.38
   0   5   9   13.37   24.06
   0   5  -9   76.34   16.76
   0  -5   9   35.68   32.97
   0   5   9   -0.11   18.13
   0  -5   9   63.75   23.31
  -6  -5  -3   42.57   12.30
   6   5   3   39.65   15.91
  -6   5  -3   23.30   37.59
  -6  -5  -3   69.42   43.79
   6  -5   3   48.66   16.69
   9   2  13   27.08   19.12
   9  -2  13   10.45    5.25
   9   2  13   22.32   14.32
   9  -2  13   12.34    4.29
   9  -2  13   25.78    9.91
 -13   2  11    1.59    6.41
  13   2 -11    6.56    9.20
  13  -2 -11    2.46    6.77
 -13  -2  11    3.08   12.65
   7   3 -16   20.44   14.47
  -7   3  16    6.29    9.93
  -7  -3  16   30.78   19.62
 -13   3   4   46.84    6.78
 -13   3   4   35.81    7.30
  13   3  -4  160.24   27.94
 -13  -3   4  172.77   37.63
 -13   3   4    0.33   45.34
 -10  -3  -9    3.71    3.09
 -10   3  -9   -0.88   11.13
  10   3   9    2.92    5.47
 -14   1  -5   14.89   10.84
 -14  -1  -5    7.32   12.90
  14   1   5    8.24    4.17
  14  -1   5    2.79    2.75
  14  -1   5    4.61    3.39
  -5  -2  19   36.77   20.34
   5   2 -19   30.88   15.56
  -5   2  19   -1.73   20.65
  -5  -2  19   -0.41   14.25
   5   1  18   21.91   21.23
   5  -1  18   13.83    8.88
   5  -1  18   81.00   18.53
   5   1  18   12.59   11.36
   5   1  18   18.02    9.56
  -8   4  -8   -0.70   16.70
   8   4   8   -1.58    9.48
   8  -4   8   75.09   18.41
 -14  -2  -2  121.08   23.29
 -14   2  -2   91.52   62.12
  14   2   2   98.62   29.92
 -12  -1  15   42.05   31.91
  12   1 -15   72.73   25.19
  12  -1 -15   31.61   23.04
 -12   1  15   46.84   26.07
 -14  -1  11  106.85   21.50
 -14   1  11   54.33   16.86
  14   1 -11   97.41   17.76
  14  -1 -11   63.14   23.46
  10  -2 -16   13.69   20.91
 -10  -2  16   42.26   17.89
 -10   2  16   11.68   21.37
  10   2 -16   44.73   13.26
   7   5  -2   37.45   10.39
  -7  -5   2   56.41   16.40
  -7   5   2    3.09    7.50
  -7   5   2   -0.04    7.63
  -7   5   2   23.85   21.83
  -7  -5   2   24.38   14.35
  14  -2  -8    6.38    7.60
 -14  -2   8    3.14   16.32
 -14   2   8    8.56    7.30
  14   2  -8   10.88    7.07
  14   0   6    8.45    3.73
 -14   0  -6    4.78   10.82
   5  -2  17   36.81   12.51
   5   2  17   25.00   22.62
   5   2  17   20.61   28.25
   5  -2  17   26.03   14.95
  -9   2  17   -0.59   10.35
   9   2 -17    5.44    9.69
   9  -2 -17    2.13    5.72
  -9  -2  17   10.27   13.75
  -7  -5   0   45.85   13.58
  -7  -5   0   75.32   17.98
   7   5   0   56.49   12.19
  -7   5   0    0.13    6.69
  -7   5   0    5.25    6.29
  -7   5   0   40.12   15.80
  13   3   0   10.63   13.42
 -13  -3   0   18.65   11.28
 -13   3   0    0.26   15.83
   1  -1  20   -0.28    8.91
   1  -1  20    3.04    8.72
  -1   1 -20    2.20    7.58
   1   1  20    1.08   11.11
   1   1  20    2.11    3.43
  13  -1   8    3.04    2.50
  13  -1   8    2.88    4.09
 -13  -1  -8    2.41   10.70
 -13   1  -8   10.24    9.12
   2   0  20    8.87    8.90
   2   0  20    9.07   12.62
 -10   4   8   19.62   12.80
  10   4  -8   58.04   11.95
 -10   4   8   -1.23   10.50
 -10   4   8   12.23   13.42
 -10  -4   8   61.88   17.99
   8   0  16    0.91    4.86
   8   0  16    3.93    4.41
  14   0 -12   75.08   16.90
 -14   0  12   69.38   18.55
   1  -2  19    7.48    7.72
   1  -2  19   10.63    9.77
   1   2  19    5.94    6.70
   1   2  19    4.36   18.60
  -1   2 -19   13.35    6.52
   4  -5   7   18.27   11.64
   4   5   7  171.53   24.45
   8   1 -19    3.53    5.57
   8  -1 -19    1.43    9.56
  -8   1  19   -1.75   11.48
  -8  -1  19    3.44    7.03
  -3   5  -8  221.62   26.06
   3  -5   8  204.51   30.20
   3   5   8  121.65   31.79
 -11  -2  15   21.79   21.42
 -11   2  15   10.74    9.21
  11  -2 -15   13.42    9.10
  11   2 -15   22.61   15.82
 -11   3  12   11.91   12.60
 -11  -3  12   28.72   15.88
  11   3 -12   21.83   17.71
 -11   4   3    2.95    2.03
 -11   4   3    0.31   13.86
 -11   4   3    0.49    1.50
 -11  -4   3   39.81   14.55
  11   4  -3    8.48    9.05
   7   0  17    1.20    8.88
   7   0  17    3.25    5.02
  13   3  -6   44.18   10.33
 -13   3   6    9.03    6.97
 -13   3   6   -1.06   16.33
 -13  -3   6   34.58   24.65
  10   4   4    3.26   30.79
 -10   4  -4   84.34   31.41
 -10  -4  -4  137.43   44.45
  -9   0 -15  102.06   24.75
   9   0  15   53.99   24.29
   9   0  15   62.38   22.34
  11   0 -17  139.60   27.16
 -11   0  17  147.97   30.04
 -10  -2 -12   47.95   11.71
  10   2  12   36.00   17.34
  10   2  12    2.59   20.51
 -10   2 -12   -0.20   40.43
 -15   0   9    4.08    4.63
  15   0  -9    1.39    3.91
 -10   0  18   24.07   14.02
  10   0 -18   17.61   19.15
   5   5  -8   62.75   20.95
  -5  -5   8   63.26   19.62
  -5   5   8   29.49   10.76
  -5   5   8    5.39   18.82
  -5  -5   8   37.06   16.49
  -5   5   8   31.17   12.08
   7   5  -4   60.10   13.44
  -7  -5   4   34.10   20.22
  -7   5   4   27.41   22.98
  -7   5   4    5.65   10.79
  -7   5   4    0.44   10.50
  -7  -5   4   71.82   20.27
 -11  -4   1   30.19   22.78
 -11   4   1    0.56   24.29
  11   4  -1    6.80   14.34
  12   3   5    2.31    3.97
 -12  -3  -5    0.08    5.83
 -12   3  -5  -11.33   14.79
   5   5   6    3.62    5.13
  -5   5  -6   -0.07    1.66
   5  -5   6    0.04    1.48
  11   1  12   20.99   13.75
 -11   1 -12   25.93   12.83
 -11  -1 -12   22.54    7.11
  11  -1  12   -0.60    5.45
  11  -1  12   11.57    5.18
  11   1  12    1.35    6.10
   2  -4  14   37.24   33.23
  -2   4 -14   62.45   15.71
   2  -4  14   44.46   10.81
   2   4  14    9.68   29.20
   2   4  14    1.68   39.82
 -15   1   8  111.45   26.27
 -15  -1   8  117.94   24.02
  15  -1  -8  113.42   27.22
  15   1  -8  120.12   30.73
  -4  -5   9   35.14   24.77
  -4  -5   9   16.94   14.39
  -4   5   9   20.39   12.93
  -4   5   9   14.47   17.52
   4   5  -9   38.21   15.56
  -4   5   9    5.00   19.66
  -3   0  21    6.75    8.67
  -3   0  21    0.63    9.41
   3   0 -21   11.67    8.25
 -15   0  -3  106.39   32.54
 -15   0  -3  121.44   14.60
  15   0   3   84.87   17.82
  -2   3 -17   20.33   10.82
   2   3  17    7.12   20.43
   2  -3  17   18.55   13.61
   2  -3  17   10.47    7.75
   2   3  17    5.67   23.25
  -2   5  -9  100.81   19.94
   2   5   9   87.82   37.00
   2  -5   9   72.64   26.28
  -6   3  17    1.46   24.68
  -6  -3  17    0.41   20.29
  -6  -3  17   49.31   16.68
   6   3 -17   44.08   12.19
  -6   5   7    9.48   18.04
  -6   5   7   30.76   19.72
  -6   5   7   40.44   25.07
  -6  -5   7   55.66   37.22
   6   5  -7   81.76   15.74
  -6  -5   7   41.15   28.18
   8  -2 -18   25.58   12.27
   8   2 -18   43.80   12.19
  -8   2  18   -2.62   13.32
  -8  -2  18   48.53   26.91
  13   0   9    3.10    3.67
  13   0   9   13.79    6.16
 -13   0  -9    5.31    9.41
 -15  -1  -2   27.55   15.37
 -15   1  -2   40.65   32.61
  15  -1   2   17.74    8.25
  15   1   2   22.80   12.99
  -8   4  12   59.52   22.01
   8   4 -12   93.75   16.02
  -8   4  12    0.94   14.65
  -8   4  12   20.40   23.46
  -8  -4  12  101.30   23.67
 -12   0  16  443.24   85.83
  12   0 -16  429.68   76.22
  -1  -5  10   31.21   34.74
  -1   5  10    1.40   18.51
   1   5 -10   53.61   11.56
  -1   5  10   54.37   16.50
  -1  -5  10   73.53   27.13
  -7   4  13    6.18   15.58
   7   4 -13   37.36    9.51
  -7   4  13    1.92   15.55
  -7  -4  13   35.89   23.08
  -7   4  13    0.00    9.80
  -7  -4  13    6.09   14.83
  -7   4  13   10.71   11.78
  -7   5  -2    0.22    2.64
   7   5   2    4.47    6.10
  -7   5  -2   -0.80   15.12
  -7   5  -2    1.48    2.42
  -7  -5  -2    8.63    5.51
  -7  -5  -2   20.80    9.33
 -11   4   5    4.44    4.07
  11   4  -5    5.60   12.52
 -11  -4   5   20.83   18.97
 -11   4   5    7.13    4.95
 -11   4   5   -0.84   10.45
   6   0  18   -2.41    9.35
  -1   0  21   97.26   25.72
   1   0 -21  100.06   22.64
  -1   0  21   80.41   32.55
 -10   0 -14   -0.57    8.46
  10   0  14    2.19    4.84
  10   0  14   -0.85    4.83
   9   0 -19   -0.02   18.31
  -9   0  19   41.72   23.03
   4  -1  19    3.07   12.43
   4   1  19    8.05    7.26
   4   1  19    4.19    8.75
   4  -1  19    6.94   11.10
  -1   4  15    0.98   40.70
  -1  -4  15   -0.35   42.30
  -1  -4  15   96.45   31.09
   1   4 -15   90.81   14.59
  -1   4  15   45.02   21.08
   9   4   7   -1.26    5.19
  -9   4  -7   -1.81   16.45
 -13   1  14   34.54   22.40
  13   1 -14   56.32   14.41
 -13  -1  14   50.50   17.85
  13  -1 -14   29.92   13.38
   4   2  18    9.71   17.13
   4  -2  18    1.66    8.96
   4  -2  18   10.81   14.92
  -4   2 -18   11.79    8.88
   4   2  18    7.70    9.06
 -12  -2  14   85.80   36.30
 -12   2  14   37.53   14.98
  12   2 -14   86.74   17.13
  12  -2 -14   39.49   24.81
  -3   4  15    0.40   32.73
  -3   4  15   54.29   10.80
  -3   4  15   14.48   19.33
   3   4 -15   89.75   14.02
  -3  -4  15   96.43   30.78
  -3  -4  15   -0.04   22.35
 -11   4  -1   -0.07   50.33
  11   4   1   71.39   31.60
 -11  -4  -1   93.89   27.79
   6   5   5    0.49   27.03
  -6   5  -5   76.53   25.27
  -3  -3  18   43.31   40.36
  -3   3  18    0.05   23.29
   3   3 -18   97.69   17.83
  -3  -3  18  103.18   35.39
 -13   3  -2    1.86   10.26
 -13  -3  -2    0.03    6.91
  13   3   2    5.92    7.77
 -11   3  -8   -0.05   16.15
  11   3   8    4.52    8.59
 -11  -3  -8   15.12    6.64
  -1  -3  18  249.54   36.99
  -1   3  18  110.34   38.53
   1   3 -18  225.68   28.14
  -1   3  18  104.28   14.96
  -1  -3  18  145.85   39.18
   3   5 -10   75.38   14.10
  -3   5  10    9.82   18.48
  -3   5  10   44.41   14.69
  -3   5  10   28.44   25.63
  -3  -5  10   76.90   31.64
  -3  -5  10   47.66   34.61
   9   4 -11    6.83    8.34
  -9  -4  11    4.60   12.56
  -9   4  11    0.92    3.64
  -9   4  11    2.02    7.16
  -9   4  11    0.13    4.34
  -6   4  14    9.29    9.94
  -6  -4  14    0.60   14.92
   6   4 -14   31.17   14.26
  -6  -4  14   47.31   13.06
  -6   4  14    2.01   10.28
  -6   4  14    4.38    9.99
   5   0 -21   29.43   14.27
  -5   0  21   32.19   29.05
   1   5  10    4.81   14.83
   1   5  10   -0.47   11.21
  -1   5 -10    7.78    5.06
   1  -5  10   25.92   11.25
   1  -5  10    0.22   10.49
   7   5  -6   13.28   14.74
  -7   5   6   -0.97    5.50
  -7   5   6    0.55    8.57
  -7   5   6   19.86    9.60
  -7  -5   6   22.44    9.64
  -7  -5   6   21.53   13.20
 -11   2 -11   78.79   28.47
 -11  -2 -11   67.91   15.73
  11   2  11   -0.35   22.12
  -7  -1  20   57.21   29.15
   7  -1 -20   45.70   15.09
   7   1 -20   46.61   22.97
  -7   1  20   -0.77   16.74
 -13  -2  -7    0.83    5.93
  13   2   7    0.98    6.25
 -13   2  -7    5.45   13.85
 -13   3   8    2.08    5.20
 -13   3   8   -0.12   10.17
 -13  -3   8    9.36   16.17
  13   3  -8   11.23    6.91
  -2   1  21   12.81   14.13
  -2  -1  21    9.95   18.59
   2   1 -21   15.18    9.03
  -2  -1  21   16.64   17.72
   2  -1 -21   14.87   10.24
  -2   1  21    0.61   12.26
   2   2 -20   68.40   22.56
  -2   2  20   26.76   17.75
  -2   2  20   -1.25   34.55
  -2  -2  20   42.82   26.47
  -2  -2  20   43.03   30.39
 -12  -3  11   21.25   15.34
 -12   3  11    4.50   11.66
  12   3 -11   38.95   17.44
  14   2   4    2.46    7.31
 -14  -2  -4    5.08   11.38
 -14   2  -4    3.27   18.89
   5   0  19    4.07    9.14
   5   0  19    4.71    6.76
 -13   0  15   -1.41   12.69
  13   0 -15    8.98   10.97
   7   3  14  106.92   58.37
   7   3  14  160.73   45.33
   7  -3  14   97.72   30.24
  11   0  13   -6.90    7.02
  11   0  13   11.57    4.50
 -11   0 -13    8.91   15.18
 -14  -2  10   10.88   18.88
  14  -2 -10    8.23    9.83
 -14   2  10    4.63    9.52
  14   2 -10   17.89    8.60
   7   2 -19   98.16   19.46
   7  -2 -19    0.03   30.46
  -7   2  19    0.28   34.64
  -7  -2  19   91.19   37.96
 -15   2   3    0.93   21.10
 -15  -2   3   10.09    7.69
 -15   2   3    3.44    3.19
  15  -2  -3    5.38    3.88
  15   2  -3   10.50    9.18
   8   0 -20    0.00   10.60
  -8   0  20   33.93   13.07
 -16   0   4    1.47    4.96
  16   0  -4    0.88    2.64
  -4  -1  21   76.71   28.07
   4  -1 -21  107.68   36.90
   4   1 -21   98.68   21.27
  -4  -1  21   88.23   26.23
  -4   1  21   77.87   26.46
  12  -1  11    1.84    3.02
 -12  -1 -11    7.82    7.89
  12  -1  11   -0.97    3.08
 -12   1 -11   12.08    7.87
  12   1  11    0.60    5.86
  12   1  11    7.24    8.54
   1   4  15    0.21   50.60
   1   4  15   45.87   23.01
   1  -4  15   71.69   29.86
   1  -4  15  110.11   28.75
  -1   4 -15  108.43   22.95
  -8  -5   1    9.07   11.10
  -8   5   1   -0.27    5.59
  -8  -5   1   -1.17    5.29
  -8   5   1    0.18    2.26
  -8   5   1    0.47    2.08
   8   5  -1    5.06    6.73
   6   3  15  109.85   47.22
   6   3  15  102.15   21.89
   6  -3  15   63.26   12.97
   8  -3  13   14.73   15.49
   8   3  13   86.23   23.13
   8   3  13    5.35   19.29
 -11   4   7   44.78   13.09
  11   4  -7  102.89   24.82
 -11  -4   7  109.19   37.13
 -11   4   7   12.90   10.39
 -11   4   7   -2.29   29.58
   4   2 -20  218.40   45.29
  -4  -2  20  197.37   43.84
  -4  -2  20  197.45   36.77
  -4   2  20  138.94   38.16
  16   0  -2   55.78   15.96
 -16   0   2   51.66   18.87
  -8  -5   3    7.09   14.30
  -8  -5   3    3.52    4.56
   8   5  -3    1.40    8.41
  -8   5   3   -0.01    3.44
  -8   5   3    3.59   11.22
  -8   5   3    0.29    3.61
  15   2  -5   11.26   10.27
 -15   2   5    6.15    4.69
 -15   2   5   -1.79   12.74
  15  -2  -5    2.94    5.23
 -15  -2   5   11.95   13.18
   7   5   4    0.24   14.34
  -7   5  -4   -0.50   21.99
  -7  -5  -4   64.06   24.85
  -7  -5  -4   40.49    8.67
 -15   2   1   -0.49   10.10
  15   2  -1   -1.23    4.68
 -15  -2   1    1.63    6.69
   1   0  21   27.24   10.65
   1   0  21    0.17   22.67
   5   3 -18   10.07    6.65
  -5  -3  18    5.88   11.60
  -5  -3  18    5.06    9.14
  -5   3  18   -1.67    9.25
 -10   4  10   -0.33    5.46
 -10   4  10    0.25    4.23
  10   4 -10    4.10    5.39
 -10  -4  10    4.59    8.01
 -10   4  10    3.22    8.74
  -5   4  15   10.38   16.35
  -5  -4  15   -0.17   20.50
  -5  -4  15   96.46   31.39
   5   4 -15   84.26   20.63
  -5   4  15   41.22   14.02
  -5   4  15   22.08   26.33
  15  -1 -10   38.09   12.11
  15   1 -10   75.35   23.33
 -15   1  10   64.46   21.25
 -15  -1  10   67.66   18.61
   6   4  12    1.22    6.81
  -6   4 -12    7.58    4.56
   6  -4  12    1.83    3.62
   0   2  20    6.83   22.04
   0  -2  20   17.23   19.85
   0   2 -20   21.16   13.48
   0   2  20    4.79    7.98
   0  -2  20   18.22    9.95
   1   3  18    5.78   10.43
  -1   3 -18    9.35    9.66
   1  -3  18    7.60    7.44
   1   3  18    1.61   19.63
   1  -3  18    5.98   17.32
 -16   0   6    2.93    4.34
  16   0  -6    2.82    3.84
 -13  -2  13  168.69   33.29
  13  -2 -13   68.05   33.51
  13   2 -13  173.58   39.00
 -13   2  13   80.42   32.57
   0  -1  21    7.07    6.64
   0   1  21    0.91    4.45
   0   1  21    2.11    7.62
   0  -1  21    0.18    6.57
   0   1 -21   10.49    9.47
 -11  -4  -3   26.83   14.96
 -11   4  -3    0.07   19.68
  11   4   3    4.90   17.32
  -2  -5  11    0.20    9.74
   2   5 -11   13.84    9.18
  -2   5  11    2.74   12.87
  -2  -5  11    9.50    8.47
  -2   5  11    0.99    9.67
  15   0 -11  124.95   21.37
 -15   0  11  111.47   22.71
  14  -1   7    7.66    4.72
  14  -1   7    6.72    4.29
  14   1   7   20.93    6.25
 -14  -1  -7   18.99   11.10
 -14   1  -7   14.92   25.01
  -8  -5  -1   12.41   13.69
   8   5   1    2.72    8.50
  -8  -5  -1   -0.73    5.29
  -8   5  -1    0.27   12.86
   3   1  20   -0.12    2.46
   3   1  20   -0.43    4.67
   3  -1  20    0.67    6.43
   3  -1  20   -1.31    3.67
   3   2  19   -0.41    6.82
   3   2  19    2.09    2.88
   3   2  19    1.52    7.83
  -3   2 -19    4.11    6.90
   3  -2  19    5.77    8.03
   3  -2  19   -2.11   10.82
 -10   4  -6   -0.67   18.25
 -10  -4  -6    0.66    8.94
  10   4   6   -3.21    5.90
   5   3  16   18.86    9.86
   5   3  16    8.62   13.58
   5  -3  16   15.34    6.92
  -5   3 -16    4.63    4.69
   9  -3  12   22.24   18.64
   9   3  12    3.95   15.15
   5   4  13   11.98    9.97
   5  -4  13   13.99   11.10
   5  -4  13    7.00    5.61
  -5   4 -13    7.71    5.58
   5   4  13    6.46   13.08
   7   4  11    4.14   11.92
   0   5  11   25.95   15.95
   0   5 -11   48.17    9.75
   0   5  11   -0.68   18.95
   0  -5  11    0.14   34.03
   0  -5  11   53.52   22.70
 -14  -1  13  135.96   26.70
  14  -1 -13   70.35   32.84
 -14   1  13  104.76   35.75
  14   1 -13  139.64   36.26
 -15  -1  -4   38.81    9.89
  15   1   4   21.31   12.52
  15  -1   4    5.83    6.43
  15  -1   4   27.30    6.40
 -15   1  -4   32.96   32.88
 -15  -1  -4    5.44   14.55
  -6   5   9   10.72   13.97
  -6  -5   9  108.03   41.26
   6   5  -9  111.07   17.47
  -6  -5   9   52.09   34.27
  -6   5   9   42.75   25.52
  -6   5   9   40.26   23.25
  -8   5   5   55.79   20.58
  -8   5   5   18.26    8.85
   8   5  -5  111.98   18.34
  -8  -5   5  125.01   44.02
  -8   5   5   11.80   13.05
  -8  -5   5   90.15   27.82
  16   0   0    0.98    3.22
 -16   0   0   -0.26    3.78
  -5   5  10    3.17   20.80
  -5  -5  10   27.58   17.03
  -5  -5  10   48.31   29.85
   5   5 -10   51.46   12.92
  -5   5  10   21.70   12.20
  -5   5  10   20.69   15.40
  15   0   5    5.70    6.19
 -15   0  -5   28.13   19.44
   4  -5   9    9.19    4.34
   4   5   9    0.13    9.04
  -4   5  -9    8.19    3.39
  16  -1  -3   40.46   12.24
  16   1  -3   47.69   18.38
 -16   1   3   44.97   12.70
 -16  -1   3   35.41   22.35
   5   5   8   72.25   20.61
  -5   5  -8   26.69    6.64
   5  -5   8    6.60    8.67
   9   3 -16   95.38   19.67
  -9   3  16   32.51   30.88
  -9  -3  16   94.85   43.34
 -13  -3  -4    0.11   19.78
  13   3   4   10.58    9.09
 -13   3  -4   21.30   17.57
 -15  -2   7   34.87   20.50
  15  -2  -7   14.31    9.47
 -15   2   7   13.77    8.43
  15   2  -7   24.56   15.50
  10   3 -15   41.41   22.40
 -10   3  15   10.42   20.79
 -10  -3  15   50.58   20.32
 -12   2 -10    4.41    9.13
 -12  -2 -10    1.61    3.56
  12   2  10    1.68    7.24
 -14   0  -8    1.81    9.65
  14   0   8   -0.62    3.07
  14   0   8   -1.00    3.45
   4   0  20   -0.15   10.66
   4   0  20    3.13    4.92
 -12   0 -12    5.41   14.78
  12   0  12    2.18    6.13
  12   0  12    4.98    5.88
   4   4  14   16.86   20.25
   4  -4  14   34.25   10.73
   4   4  14   21.00   25.67
  -4   4 -14   17.66   11.30
   4  -4  14   47.50   18.17
 -12   3  -7   91.24   71.89
 -12  -3  -7   87.31   19.20
  12   3   7   91.69   22.39
  -8   4 -10   -2.52   11.88
   8   4  10   -2.00   10.11
 -14   3   3   -0.08   11.48
 -14  -3   3   16.13   14.67
  14   3  -3    2.53   10.09
  16  -1  -5   70.66   17.72
 -16  -1   5   67.99   27.34
 -16   1   5   65.92   17.78
  16   1  -5   62.35   22.05
  -7   5   8   -0.62    6.62
   7   5  -8    2.06    9.32
  -7  -5   8    7.45    8.72
  -7  -5   8    3.99    6.88
  -7   5   8    3.92    7.44
  -7   5   8   -0.88    8.40
 -15  -2  -1   31.44   25.79
  15   2   1   44.26   19.95
 -15   2  -1   46.70   45.56
  -3   5 -10   19.07    8.92
   3   5  10    1.37   19.89
  -2   4  16   -0.57   20.51
   2   4 -16   87.43   20.48
  -2  -4  16   -1.33   22.31
  -2  -4  16   70.94   17.78
  -2   4  16   13.18   31.88
  14   0 -14  377.25   52.14
 -14   0  14  357.94   75.29
   6  -1 -21    0.04   17.35
  -6  -1  21   22.10   12.62
  -6   1  21   -0.11   20.78
   6   1 -21    9.32   16.23
 -16   1   1    4.20   26.14
 -16   1   1    2.55    6.17
  16  -1  -1   15.89    6.25
 -16  -1   1    8.36   12.95
  16   1  -1   16.81    9.59
 -12   4   2   -1.89   30.34
  12   4  -2   84.75   19.19
 -12  -4   2  106.11   47.12
   6  -5   7  147.61   32.97
   6   5   7  119.27   47.68
  -4   5  11   58.31   18.76
   4   5 -11  129.65   27.80
  -4   5  11   51.49   18.76
  -4  -5  11    0.76   41.66
  -4  -5  11  120.38   25.19
  -4   5  11   38.79   20.44
  -7   0  21   41.24   41.01
   7   0 -21   83.98   32.99
 -14   3   1   -2.68   10.52
  14   3  -1    8.29    9.04
 -14  -3   1    0.07   12.60
   4  -3  17    2.17    3.93
  -4   3 -17   -0.13    2.63
   4   3  17   -1.03    8.25
   4   3  17    3.51    6.07
 -10   3 -11    2.16    8.94
  10   3  11    0.09    7.70
   8   3 -17   17.17   18.25
  -8  -3  17   39.08   15.10
  -8   3  17   10.75   12.07
 -14  -3   5   86.26   24.88
  14   3  -5   73.53   27.75
 -14   3   5   -5.53   49.31
   6  -2 -20    0.00   12.77
  -6  -2  20   40.53   15.06
  -6   2  20    0.54   24.83
   6   2 -20   32.59   19.02
 -12   4   4   -3.34   47.38
 -12  -4   4  125.70   49.07
  12   4  -4   73.71   19.92
 -16   0   8   71.78   26.47
  16   0  -8   75.00   22.71
 -11  -3  14   31.89   38.71
  11   3 -14   84.25   16.13
 -11   3  14   22.14   13.31
 -13  -3  10   11.81   19.19
 -13   3  10    3.66    4.60
  13   3 -10   13.85    7.79
  -8   5  -3    0.28   16.49
  -8  -5  -3    2.02    4.64
   8   5   3    2.61    6.11
  -8  -5  -3    6.13   18.30
  13  -1  10    1.56    2.35
 -13   1 -10    0.32   15.30
  13  -1  10    2.08    2.78
  13   1  10   -0.12    5.61
 -13  -1 -10    5.52    9.97
   0   4  16   90.39   41.82
   0  -4  16  211.64   32.28
   0  -4  16  139.53   64.94
   0   4 -16  275.61   39.30
   0   4  16  121.07   35.67
  11  -1 -18    0.01    6.31
  11   1 -18    0.98    4.05
 -11  -1  18   -2.71    8.65
 -11   1  18    1.76    7.35
 -11  -4   9   27.01   12.09
  11   4  -9   27.62   13.65
 -11   4   9   -1.13   14.32
 -11   4   9   -5.52    6.94
 -11   4   9    9.69    9.34
  -4  -4  16   -0.30   16.60
  -4  -4  16    0.20   14.62
   4   4 -16   10.78    9.88
  -4   4  16    2.79    9.03
  -4   4  16    5.28    8.69
  -4   4  16    4.28    5.45
   2   0 -22  139.39   28.71
  -2   0  22  116.43   51.84
  -2   0  22  113.23   28.10
  12   4   0    2.39    5.03
 -12  -4   0    0.09   13.45
 -12   4   0    0.23    9.08
   2   3 -19    4.82    5.11
  -2  -3  19   -0.13    6.83
  -2   3  19    2.05    4.80
  -2  -3  19    8.40   13.83
  -2   3  19    0.21    8.71
   2   5  11   -3.67   30.22
   2   5  11   -1.19   23.84
   2  -5  11   69.97   18.40
  -2   5 -11   68.91   15.72
  10   1 -19   -0.02   12.31
 -10  -1  19   23.57   16.50
 -10   1  19   13.38   14.09
  10  -1 -19    0.02    7.42
 -16   1   7    4.26    7.14
 -16  -1   7    4.53    6.72
  16   1  -7    2.39    9.04
  16  -1  -7    5.51    6.87
   8   1  17   24.43   18.75
   8  -1  17   10.15   10.08
   8  -1  17   11.92    7.18
   8   1  17   20.92    9.19
 -12   1  17   -0.05    7.11
  12  -1 -17    0.01    6.23
  12   1 -17    9.85   11.09
 -12  -1  17   11.23    8.78
   3   4  15    0.78   53.17
  -3   4 -15   83.44   20.86
   3  -4  15   67.96   12.50
   3   4  15   74.09   37.05
   3  -4  15  124.99   43.77
  -9   4  -9    0.79   10.59
   9   4   9    1.95    5.37
   9  -4   9    1.23    6.75
   9  -1  16   68.33   18.06
   9  -1  16   35.54   15.08
   9   1  16   72.65   31.44
   9   1  16   67.45   15.74
  -9   1 -16   88.91   29.90
  -4   0  22    4.58   23.31
   4   0 -22  144.30   24.70
  -8   5   7   30.19   25.00
  -8  -5   7   52.40   40.68
  -8   5   7   20.78   17.43
  -8   5   7    0.47   14.38
  -8  -5   7   36.55   31.78
   8   5  -7   91.88   16.53
 -16   0  -2    1.78    5.73
  16   0   2    2.22    4.81
 -16   0  -2    7.47   14.44
  14   2   6    7.85    9.81
 -14  -2  -6    1.88   11.34
 -14   2  -6    8.09   13.89
  -1  -5  12    0.13   37.98
   1   5 -12   54.76   18.89
  -1   5  12   20.42   27.88
  -1  -5  12   59.16   16.61
  -1   5  12    1.07   35.75
   7   5   6    0.11    3.81
   7  -5   6    0.07    4.19
  -7   5  -6   -1.95    6.55
  -9  -5   2  118.14   34.54
   9   5  -2  125.80   35.64
  -9  -5   2   62.77   32.29
  -9   5   2   -6.74   52.31
   2  -2  20   55.23   17.70
   2  -2  20   22.85   12.65
  -2   2 -20   45.03   18.80
   2   2  20   13.55   18.14
   7   1  18    1.84    5.88
   7  -1  18    1.76    3.53
   7   1  18    1.28    4.71
   8  -2  16    0.35    3.91
   8   2  16    5.37    5.81
   8   2  16    0.10   13.00
   8  -2  16    2.95    3.29
   8  -2  16    7.15    6.24
  14   2 -12   16.58    9.17
 -14  -2  12   14.32   12.65
  14  -2 -12    6.03   11.37
 -14   2  12    6.41   10.84
  -8   4  14   12.85   14.09
  -8   4  14    5.55   17.41
  -8  -4  14   29.58   27.84
   8   4 -14   42.99   18.23
  12   4  -6   56.35   12.46
 -12  -4   6   60.58   30.37
 -12   4   6    0.33   28.76
 -12   4   6    2.56    6.79
 -12   4   6   17.10    8.22
   4   3 -19   98.74   19.38
  -4   3  19    0.52   24.98
  -4  -3  19   95.17   39.27
  -4  -3  19   70.15   26.85
 -14   3  -1   -1.09   20.98
  14   3   1    6.50    9.81
 -14  -3  -1    0.11   13.95
   2   1  21   -0.17   24.87
   2  -1  21   18.25   13.42
   2   1  21   21.06   12.77
  -2   1 -21   27.98   10.51
   2  -1  21   -1.18   19.95
   7   3 -18    9.37   12.96
  -7  -3  18   16.39   18.51
  -7   3  18   -0.78   15.81
 -16   1  -1   76.08   49.88
 -16  -1  -1   79.44   15.17
  16  -1   1   51.88   10.84
  16   1   1   47.68   20.56
  11   4   5    1.67   17.90
 -11   4  -5    0.09   19.32
 -11  -4  -5   35.56   17.36
 -14  -3   7   90.55   34.60
 -14   3   7    0.76   40.18
  14   3  -7   79.40   25.39
 -14   3   7   29.73   10.70
  -9   4  13   19.83   24.15
  -9   4  13   55.49   15.86
   9   4 -13   98.57   29.12
  -9  -4  13   94.31   26.28
   7  -2  17   -0.06    6.88
   7  -2  17    1.45    4.47
   7   2  17    8.35    6.23
   7   2  17    2.77    8.05
   9   2  15   72.77   23.25
   9   2  15   83.22   17.86
   9  -2  15   57.99   13.06
   9  -2  15   44.04   13.84
   9  -2  15  116.12   31.40
  10  -1  15   10.58   10.23
  10  -1  15    9.45    8.69
 -10  -1 -15   34.64    9.15
 -10   1 -15   38.79   31.36
  10   1  15   16.72    9.69
  10   1  15   18.13   11.87
  -3   5  12   41.57   21.16
  -3   5  12   53.22   19.47
  -3  -5  12  100.70   37.12
  -3  -5  12   -0.62   41.41
   3   5 -12  106.44   25.94
  -9  -5   0   66.98   23.29
   9   5   0   15.82   25.46
  -9  -5   0   33.43   10.63
  -9   5   0   -1.51   20.82
 -11  -2  17    0.38    4.68
  11  -2 -17    0.84    5.42
  11   2 -17    1.30    5.61
 -11   2  17   -0.49    3.41
 -15   2   9   11.25    6.03
  15   2  -9   21.75   15.60
 -15  -2   9   37.04   21.06
  15  -2  -9   11.51   10.16
  10  -2 -18   -0.02   16.08
 -10  -2  18   10.93   23.45
  10   2 -18   16.78   10.27
  -9  -5   4    4.97    7.40
   9   5  -4   24.93   12.38
  -9   5   4    0.22    4.84
  -9   5   4    2.28    4.53
  -9   5   4    0.39   14.61
  -9  -5   4    9.91   11.88
   0   3  19   22.13   23.44
   0   3  19   -0.57   27.24
   0   3 -19  114.61   18.09
   0  -3  19   47.81   20.09
   0  -3  19   85.84   39.78
 -12   3  13    0.24    4.77
 -12  -3  13   11.41    9.65
  12   3 -13    9.88   10.97
  -9   1  20   65.74   22.72
   9  -1 -20    0.04   30.81
  -9  -1  20   64.93   23.92
   9   1 -20   74.23   19.69
   0   6   0   10.71   13.71
   0  -6   0   13.44   13.08
   0  -6   0   16.43   14.23
  -7  -4  15   75.64   21.14
  -7  -4  15    1.01   23.94
  -7   4  15   10.33   15.59
  -7   4  15   22.37   16.72
   7   4 -15   69.55   14.30
   3   0  21    1.21    5.56
   3   0  21   -1.33    4.40
   3   3  18   21.66   14.01
   3  -3  18   27.60   14.82
   3  -3  18   20.02    8.55
  -3   3 -18   13.06   12.68
   3   3  18   13.97   28.75
 -13   0 -11   26.78   24.02
  13   0  11   29.89    9.54
  13   0  11    2.64    9.16
  11   3  10   -2.60   10.26
 -11   3 -10   -4.74   13.06
   0   0 -22    2.33    4.35
   0   0  22   -1.02    5.17
   0   0  22    0.40    4.01
   3   2 -21   19.68   16.44
  -3   2  21    0.24    8.29
  -3  -2  21   31.21   12.17
  -3  -2  21   28.55   13.91
  -3   2  21    1.43   14.73
 -15   2  -3   -9.65   26.22
 -15  -2  -3   11.10    8.49
  15   2   3    6.01   10.60
 -13   1  16    0.14   11.93
  13  -1 -16   19.15   18.34
 -13  -1  16   27.53   25.62
  13   1 -16   44.01   12.39
  15   1 -12    8.01   10.78
 -15   1  12    4.55   10.10
 -15  -1  12    4.56    8.42
  15  -1 -12    3.96    9.56
  -3   1  22    5.49    5.65
   3   1 -22    2.17    5.81
   3  -1 -22    0.97    6.43
  -3   1  22   -0.89   13.27
  -3  -1  22    2.49   11.41
  -3  -1  22    0.80    7.08
  -1   6   1    6.45    8.72
  -1  -6   1   17.40   14.92
   1  -6  -1   14.94    8.45
   1   6  -1   13.63   15.17
  -1  -6   1   37.41   15.65
   1   5  12   67.85   34.52
   1   5  12   87.63   29.13
   1  -5  12  154.95   36.09
   1  -5  12  111.89   33.00
  -1   5 -12  159.31   27.67
 -13   2  -9   -2.96   12.99
 -13   2  -9  -16.43   14.57
  13   2   9    0.58    3.52
 -13  -2  -9    3.32    4.82
  -1  -6  -1    6.63    5.20
  -1   6  -1    5.83    8.57
   1   6   1    2.19    6.54
   1  -6   1    4.57    6.33
   6   1  19   -1.51    2.91
   6   1  19   -0.03    5.39
   6  -1  19    1.80    3.72
  12   4   2    1.30    8.86
 -12  -4  -2    1.64   13.56
 -12   4  -2    2.35   18.08
 -12  -2  16   40.12   17.86
 -12   2  16    0.30   12.37
  12   2 -16   55.10   13.69
  12  -2 -16   21.42   12.69
   0  -6   2   35.57   23.03
   0  -6   2   56.38   20.43
   0   6   2   25.42   21.75
   0   6  -2   34.71   12.22
 -10   4  12   15.17   16.93
 -10  -4  12   47.01   36.04
  10   4 -12   76.21   14.71
 -10   4  12   12.56   13.65
   6  -2  18   24.12   10.85
   6  -2  18    7.22    8.27
   6   2  18    7.42   16.94
   6   2  18   12.52   12.48
  -1   2  21    0.97   17.80
  -1   2  21   29.06   12.27
  -1  -2  21   -1.17   23.29
  -1  -2  21   40.82   26.31
   1   2 -21   42.46   18.46
 -10   2 -14   -1.43    8.82
  10   2  14    0.69    4.44
  10   2  14    0.11   10.60
  10  -2  14    1.88    3.24
   9  -2 -19    0.03   10.88
   9   2 -19   15.39   18.48
  -9  -2  19   64.43   15.15
  -9   2  19   -0.60   12.00
 -11   0  19    2.49    8.17
  11   0 -19   -0.01    4.20
  -1  -1  22    3.69    9.98
  -1   1  22   -0.26    6.95
   1   1 -22    3.99    5.48
  -1   1  22   -2.18    7.20
  -1  -1  22    3.91   10.73
  15   0 -13   -0.33    6.83
 -15   0  13   -2.22    7.86
 -15   1  -6   -1.26    6.83
 -15  -1  -6   -0.96    8.52
  15   1   6   -0.21    3.96
  -2  -6   0   34.02   18.39
   2  -6   0   22.30   10.29
   2   6   0   11.90   10.58
  -2   6   0   11.19    8.43
  -2  -6   0   28.60   14.33
  11  -1  14    0.98    6.74
  11   1  14    0.74   11.23
 -11   1 -14   21.89   23.22
 -11  -1 -14   23.58    7.11
  11   1  14    8.07   15.36
  11  -1  14    6.80    6.20
  12   0 -18   -0.01    9.66
 -12   0  18    6.26   11.57
 -16   0  10   46.53   25.99
  16   0 -10   65.30   22.48
   2  -4  16    0.41    3.73
   2  -4  16   -5.67    7.20
   2   4  16   -1.66    3.68
   2   4  16   -0.66    8.85
  -2   4 -16    0.82    1.83
  10   4   8    0.60    4.23
 -10   4  -8   -0.87   13.94
  -8  -5  -5   -0.05    7.52
   8   5   5    0.16    4.43
  -8   5  -5    1.55    7.08
 -13   3  -6   10.08   14.76
 -13  -3  -6    0.09    9.40
  13   3   6    2.68    6.45
 -13  -3  -6    5.93    6.26
  -9  -5  -2   12.65    9.96
  -9   5  -2    0.48   28.48
   9   5   2    5.61   18.09
  -9  -5  -2   24.36   17.38
  16  -1  -9    9.53   10.82
 -16  -1   9   22.28   10.29
 -16   1   9    9.68    7.13
  16   1  -9   16.58   13.48
   2   6  -2    6.07    7.39
  -2  -6   2   23.30   12.56
  -2  -6   2    0.98   13.07
  -1  -6   3    8.26   10.80
  -1   6   3    5.28    6.74
   1   6  -3    7.53   10.96
  -1  -6   3    9.27   13.20
   6   0 -22    4.00    7.56
  -6   0  22    3.63   16.25
  -6   5  11   12.95   19.43
  -6  -5  11   55.37   18.47
  -6   5  11    6.44   15.92
  -6  -5  11    0.70   27.75
  -6   5  11    3.86   19.28
   6   5 -11   64.77   20.54
  -7   5  10    7.10   16.90
  -7  -5  10   -0.71   17.22
   7   5 -10   86.62   22.25
  -7   5  10   24.31   11.63
  -7   5  10   25.90   17.97
  -7  -5  10   62.59   32.18
  -9   5   6   -1.37    6.99
  -9   5   6    4.29    6.37
  -9   5   6    9.03   13.96
   9   5  -6   11.87   13.13
  -9  -5   6   12.07   12.79
  -9  -5   6    9.84    9.37
   6   4 -16  145.08   19.03
  -6   4  16   58.35   12.67
  -6  -4  16  168.92   44.62
  -6  -4  16    0.12   45.46
  -6   4  16   57.29   35.12
  -6   4  16   -1.68   20.45
 -10   0  20   20.20   13.67
  10   0 -20    0.03   17.79
  -5  -2  21   18.19   13.62
   5   2 -21   10.34   14.40
  -5  -2  21   14.33   18.44
  -5   2  21    0.59   12.09
   1   6   3    5.12    9.31
   1  -6   3   16.69   12.92
   1  -6   3   25.04   10.30
  -1   6  -3   10.32    7.77
   5   1 -22   27.87   12.35
  -5   1  22   -0.30   27.19
  -5  -1  22    1.95   15.98
   5  -1 -22   24.47   13.55
  -5  -1  22   24.90   26.69
  15   0   7   31.18   10.46
 -15   0  -7   -4.08   33.39
   2  -6   2   17.71    9.15
  -2   6  -2    0.89   10.19
  -2  -6  -2   15.07   10.10
   2   6   2    8.18   15.42
 -12   4   8    8.23   14.87
  12   4  -8  144.08   20.94
 -12  -4   8  132.08   48.99
 -12   4   8   79.72   26.20
 -12   4   8   53.85   18.40
   9   0  17   12.39   14.94
   9   0  17   14.73    7.90
  -6  -3  19   71.65   31.38
  -6  -3  19  107.37   26.33
   6   3 -19  102.55   19.60
  -6   3  19    0.10   24.10
  -8  -1  21   48.31   19.26
  -8   1  21   29.97   31.61
   8  -1 -21    0.02   16.89
   8   1 -21   47.79   15.78
  14   1   9   18.15    7.81
 -14   1  -9   10.05   33.36
 -14  -1  -9   13.53   21.58
  -1  -4  17   39.01   35.46
   1   4 -17   58.72   20.22
  -1   4  17   30.95   30.78
  -1  -4  17   47.19   16.69
  -1   4  17   -1.11   22.23
  -3   4  17   82.29   32.59
  -3   4  17   58.68   34.32
  -3  -4  17  176.46   31.67
  -3  -4  17  108.54   58.06
   3   4 -17  191.95   37.15
 -14  -3  -3    0.14    7.73
  14   3   3    4.24    5.21
 -14   3  -3   -3.02   20.17
 -13   0  17   16.12    9.44
  13   0 -17    0.01    7.71
   8   0  18    3.02    5.46
   8   0  18    1.67    4.59
  -5  -5  12   -2.49   16.92
   5   5 -12   45.85   11.36
  -5   5  12   14.37   20.38
  -5   5  12    8.65   14.85
  -5  -5  12   53.37   28.49
  -5   5  12   15.76   12.94
  -3  -6   1   16.55   15.43
  -3   6   1    0.20   13.40
   3   6  -1   41.96   18.64
  -3  -6   1   30.87   17.55
   5   2  19    7.31   13.85
   5   2  19    3.01   17.89
   5  -2  19    0.45    8.95
   5  -2  19   28.04   15.08
   0  -6   4   55.35   18.48
   0   6   4   15.36   23.17
   0   6  -4   19.25   19.60
   0  -6   4   46.45   15.93
 -13  -2  15    6.16   14.80
 -13   2  15   -0.36    6.10
  13   2 -15   10.73   10.99
  13  -2 -15    4.75    6.08
  11   2  13    0.85    5.55
  11   2  13    0.02   13.64
 -11  -2 -13    6.79    5.74
 -11   2 -13    1.48   11.46
 -14   3   9    1.01    9.15
 -14   3   9    1.40    4.99
  14   3  -9    4.51    9.38
 -14  -3   9    9.78   13.99
   5   1  20   14.82   10.28
   5  -1  20   15.99   18.63
   5   1  20    0.11   22.32
   5   1  20   25.53   12.23
   5  -1  20   12.35   16.63
  -2  -5  13    0.04   13.25
  -2  -5  13   14.40   18.76
  -2   5  13   15.90   10.55
  -2   5  13    0.49   20.73
   2   5 -13   15.73   11.92
   8  -2 -20   -0.03   15.31
   8   2 -20   11.10    9.06
  -8  -2  20   16.63   20.66
  -8   2  20   -0.80   17.55
  -8   5   9    0.15    6.09
  -8   5   9    9.03    7.03
  -8  -5   9   30.75   14.65
   8   5  -9   18.35    9.02
  -8   5   9    6.58   14.09
  -8  -5   9   15.40   21.13
  16   1   3    1.51    5.13
 -16  -1  -3    1.54    6.77
 -16   1  -3    0.19   14.15
 -16  -1  -3   -0.52   10.95
 -14  -1  15  181.25   50.49
  14   1 -15  182.05   41.88
 -14   1  15  100.03   26.40
  14  -1 -15  110.54   38.59
 -16   2   4   -0.96   42.75
  16  -2  -4   22.78   12.24
  16   2  -4   46.75   20.11
 -16  -2   4   38.99   25.95
 -16   0  -4   20.85   14.48
  16   0   4    9.23    7.19
   5  -5  10   59.52   14.36
   5   5  10    0.37   12.08
   5  -5  10   10.93    8.45
 -11   4  11    1.74    9.70
 -11   4  11   -1.05    7.34
  11   4 -11   40.95   15.43
 -11  -4  11   41.46   15.03
 -11   4  11   -1.45   14.94
  -3  -6  -1   76.08   23.55
   3  -6   1   81.27   20.14
   3   6   1   36.18   33.56
  -3  -6  -1  127.17   35.15
  13   3 -12   87.35   18.44
 -13   3  12    6.95   18.65
 -13  -3  12   76.38   25.78
  10   0  16    0.81    7.87
 -10   0 -16    1.58    9.25
  10   0  16    5.57    5.17
  16   2  -2    0.59    6.55
 -16   2   2    6.08    9.42
 -16  -2   2    0.04    5.88
  -2  -6   4   16.01   21.37
  -2   6   4    7.62   16.66
   2   6  -4   16.59   17.53
  -2  -6   4   45.07   16.86
   4  -5  11    0.25   14.88
   4  -5  11   12.87   10.12
   4   5  11    7.90   21.21
  -4   5 -11   17.83    4.86
   6   5   9    0.14    3.68
   7   0  19   18.86   10.73
   7   0  19   17.67   19.04
   0   5  13    0.77   26.47
   0   5  13    5.43   19.58
   0   5 -13   22.27   11.46
   0  -5  13    0.55   15.62
   0  -5  13   16.26   16.45
  -3   6   3   -1.68    5.78
  -3  -6   3   20.83   14.48
  -3  -6   3   -0.63    8.69
   3   6  -3   10.42    8.41
  -3   6   3   -0.52    4.12
  -2   3 -19   57.16   22.32
   2  -3  19   90.86   26.52
   2  -3  19   48.25   28.16
   2   3  19   35.85   39.06
   2   3  19   24.09   44.84
 -12   3  -9    0.31   15.90
 -12  -3  -9    1.39    4.32
  12   3   9    0.55    7.67
  17   0  -3    3.26    4.83
 -17   0   3   11.77    5.52
   1   2  21   10.31   25.07
  -1   2 -21   29.70    9.85
   1  -2  21   -0.83   11.13
   1  -2  21   25.45   21.25
 -12  -1 -13   31.74   13.15
  12   1  13   -1.50   10.43
  12   1  13   23.25    9.61
 -12   1 -13   47.12   24.50
  12  -1  13   -0.35    6.00
  12  -1  13    9.41    5.83
   9   0 -21    0.01    4.19
  -9   0  21    2.05    9.25
  17   0  -5    2.90    3.94
 -17   0   5    3.32    7.26
 -16  -2   6   24.67   21.46
  16  -2  -6   14.44    8.94
  16   2  -6   10.98   15.89
 -16   2   6   18.51    5.22
   1   6  -5   20.22   12.34
  -1   6   5    7.89   13.29
  -1  -6   5   58.38   15.49
  -1  -6   5   65.26   18.36
  15  -2 -11   13.46   12.03
 -15  -2  11   12.87   23.06
 -15   2  11   12.07   12.12
  15   2 -11   21.67   16.95
   1  -1  22   76.46   22.95
   1   1  22  110.29   27.75
   1  -1  22   57.56   22.69
   1   1  22   88.25   27.20
  -1   1 -22  104.53   32.56
  12   4   4    1.71   10.70
 -12  -4  -4    6.23   17.30
 -12   4  -4   -0.12   22.16
   2   0  22   10.00   12.89
   2   0  22    2.30   15.66
   7   4  13   -1.16    9.29
   7   4  13   21.08   13.38
 -14   0 -10   -0.13    8.16
  14   0  10   -0.24    2.89
  14   0  10    0.36    2.57
   2   6   4   76.93   16.65
  -2   6  -4    0.16   10.42
   2  -6   4    4.55   10.64
  13   4  -3    2.43    6.47
 -13  -4   3    4.62   10.10
 -13   4   3   -0.83   18.16
   6   4  14   -4.14   10.36
   6   4  14    1.69    7.52
   8   3  15   18.41   19.61
   8   3  15   29.52   14.92
  -3   5 -12   44.23   12.10
   3   5  12    1.69   22.20
   3  -5  12   -0.11   20.01
   3   5  12    0.28   15.80
   3  -5  12   51.30   13.70
   7   5   8    3.02   12.60
  11   0  15    1.35    3.70
  11   0  15   -2.40    4.14
 -11   0 -15   -1.06    4.51
 -10  -5   3   54.18   21.25
 -10  -5   3   -3.39    7.44
 -10   5   3    0.54   11.60
  10   5  -3    9.09    7.84
  -4   5  13   18.39   15.41
  -4  -5  13   -0.29   19.31
  -4   5  13   25.13   23.37
  -4  -5  13   31.49   29.63
   4   5 -13   42.17   11.99
 -17   0   1   45.47   16.57
  17   0  -1   40.50   15.22
 -10   5   1   -2.12   20.50
  10   5  -1   13.66    7.62
 -10  -5   1   31.82   21.15
 -10  -5   1   -4.42    6.67
   7   3  16   17.44   16.02
   7   3  16   14.73   18.72
   7  -3  16    7.10    6.61
   7  -3  16   34.20   12.95
   3   3 -20  100.22   20.88
  -3  -3  20   76.24   29.32
  -3   3  20   -2.97   48.79
  -3  -3  20   79.50   26.85
  -9  -5  -4    9.92   14.13
   9   5   4    0.62   13.70
  -9   5  -4   -0.33   22.60
  -4   6   0    0.25    9.79
  -4  -6   0   21.28   11.90
  -4  -6   0   26.33   26.02
   4   6   0    4.55    9.44
  -4   6   0   18.25   12.38
  16   2   0    0.85    7.15
 -16  -2   0    0.15    9.81
 -16   2   0    5.66   10.53
   1   6   5   -8.34   16.24
   1  -6   5   93.06   18.77
  -1   6  -5   49.83   18.69
  -3  -6  -3    9.62    8.26
  -3   6  -3    1.25    8.99
   3   6   3   -2.00   15.20
   3  -6   3   20.16    9.10
  -4   6   2   15.04   12.29
  -4  -6   2   66.73   29.35
  -4  -6   2   14.03   15.06
  -4   6   2    1.53   12.09
   4   6  -2   13.58    9.99
   1   4  17    2.42   32.67
   1   4  17   32.87   25.08
  -1   4 -17    8.33   14.31
   1  -4  17   27.79   11.95
   1  -4  17   26.63   19.36
  -5  -4  17   65.62   16.55
   5   4 -17   67.93   18.52
  -5  -4  17   -1.19   18.09
  -5   4  17   16.32   10.70
  -5   4  17    2.93   14.52
  -5   4  17    2.38   14.81
  14   0 -16    0.02   18.11
 -14   0  16   29.26   13.67
 -11   4  -7   -0.40    9.00
  11   4   7    0.83    4.45
  13   4  -1    6.84    9.76
 -13   4   1    1.27   29.40
 -13  -4   1   21.03   14.61
  15   2   5    6.11    6.24
 -15  -2  -5    3.75    8.46
 -15  -2  -5   15.10    9.10
 -15   2  -5   -0.34   26.85
   8   4  12   -1.21    5.50
  -1  -3  20   -0.77   17.47
   1   3 -20   68.89   14.15
  -1   3  20   -0.04   22.27
  -1  -3  20   54.11   21.93
   9   5  -8   25.54   16.65
  -9  -5   8   37.97   27.51
  -9   5   8    9.89   17.15
  -9   5   8    1.29    9.66
  -9   5   8    8.92   11.69
  -9  -5   8   19.17   13.58
 -15   3   4    0.13   13.28
  15   3  -4    2.56    6.67
 -15  -3   4   -0.84    5.71
   6   0  20    4.44    8.51
   6   0  20    1.78    6.24
   9   3  14   -2.72    6.11
   9   3  14    0.25   15.11
  13   4  -5  111.30   23.20
 -13  -4   5  111.84   32.74
 -13   4   5    0.96   33.55
  15   3  -2    7.11   10.97
 -15  -3   2    0.15   15.85
 -15   3   2   -1.61   21.91
 -14  -2  -8    1.68   14.44
  14   2   8   21.76    9.05
 -14   2  -8    1.48   21.87
  -4   2 -20    4.03    6.91
   4   2  20    8.69   12.91
   4   2  20   14.67   11.25
   4  -2  20   13.33   12.89
   4  -2  20   25.18   17.77
  -3   0  23   -0.79   14.89
   3   0 -23    4.19   11.89
  -3   0  23    5.27   11.61
   5  -4  15    1.94    4.16
   5   4  15   -2.01    9.44
  -5   4 -15    1.95    4.31
   5   4  15    9.46   11.65
 -12   2 -12    1.54   26.33
  12   2  12    0.06   10.57
  12   2  12    0.97    6.99
 -12  -2 -12   20.43    8.32
  17   0  -7   85.86   24.49
 -17   0   7   77.67   17.96
   6  -3  17    6.99    6.52
   6   3  17   13.05   23.79
   6   3  17   11.25   16.74
 -10  -3  17   -7.37   12.93
  10   3 -17   -0.85    8.96
 -10   3  17   -0.20    8.89
  -3  -6   5    5.06   11.97
  -3   6   5    0.40    9.41
  -3  -6   5    2.92   17.00
  -3   6   5   -1.04    6.30
  -3   6   5    3.05    5.98
   3   6  -5   10.09    6.31
   4   1  21   -0.35   11.57
   4  -1  21   12.09    9.05
   4   1  21   13.74    9.72
   4  -1  21   15.94   15.93
 -14  -2  14   34.69   16.24
  14  -2 -14   11.83   16.77
  14   2 -14   28.45   11.92
 -14   2  14   10.26    9.41
 -17   1   4   10.22    8.30
  17   1  -4   14.79   11.38
  17  -1  -4    9.41    8.21
 -17  -1   4   10.59   14.20
 -10   5   5   -1.40   10.32
 -10  -5   5   35.43   26.52
 -10  -5   5    8.49   10.28
  10   5  -5   14.18    9.74
  16   1 -11   39.70   12.32
  16  -1 -11   21.67   16.48
 -16  -1  11   32.65   15.83
 -16   1  11   17.42   17.32
   0  -6   6    3.39    5.92
   0  -6   6    6.78   10.04
   0   6   6   -0.03    7.85
   0   6  -6    0.25    3.51
  -4  -6  -2   14.64    8.94
  -4  -6  -2    0.82   15.68
  -4   6  -2    0.36    8.16
   4   6   2    5.07    8.99
   4  -6   2   16.42    9.24
 -11  -3  16   27.59   17.93
 -11   3  16    5.58   10.67
  11   3 -16   32.07   11.80
 -10   5  -1   -0.80    9.03
 -10  -5  -1   -1.58    6.32
  10   5   1    6.91   10.06
 -10  -5  -1   17.07   16.27
   7   1 -22   12.73   15.92
  -7  -1  22   22.68   21.19
  -7   1  22   -2.06   20.48
   7  -1 -22    0.01   17.33
  -7   2  21    2.18   19.88
   7   2 -21   68.85   16.86
   7  -2 -21    0.04   17.44
  -7  -2  21   80.56   21.79
 -17  -1   2    4.27    9.60
 -17   1   2    1.87   11.78
  17  -1  -2    2.83    4.64
  17   1  -2    3.89    7.54
   1   0 -23    0.61    8.86
  -1   0  23    2.12    8.09
  -1   0  23    0.36   10.78
  -4   6   4    1.72   12.64
  -4   6   4  -13.27   12.43
   4   6  -4   24.52   15.97
  -4  -6   4   60.70   26.73
  -4   6   4   30.62   17.32
  -4  -6   4   18.06   18.24
   2   6  -6    1.53   11.42
  -2   6   6    0.48   12.11
  -2   6   6   15.88    7.88
  -2  -6   6    7.08   11.40
  -2  -6   6    7.89    9.38
  -9   3  18   18.93   21.72
   9   3 -18   18.19   12.39
  -9  -3  18   30.41   17.03
  16   0 -12   10.00   12.55
 -16   0  12    9.64   14.33
  15   3  -6   25.46   17.92
 -15   3   6   -0.33   20.00
 -15  -3   6   28.76   16.03
  12   4 -10   19.67    9.08
 -12  -4  10   17.15   22.65
 -12   4  10    0.55   15.31
 -12   4  10    0.36    7.97
 -12   4  10    3.41    6.33
  16   2  -8   15.60   16.24
  16  -2  -8   11.37   10.27
 -16  -2   8   37.98   21.78
 -16   2   8   15.24    9.96
   9   4  11    0.49   18.03
   9  -4  11   25.26   13.56
  -9   4 -11   -0.21   22.14
   2   5  13   -1.05   29.58
   2  -5  13   89.93   23.08
  -2   5 -13   90.54   19.42
   2  -5  13    0.01   44.88
   2   5  13   53.57   23.81
   8   5   7   -1.05    9.45
  -5  -3  20   43.22   38.93
  -5  -3  20   35.08   41.71
  -5   3  20   -0.43   38.58
   5   3 -20   72.60   18.64
 -10   3 -13   -2.18    8.55
  10   3  13   -1.80    4.21
  10   3  13    3.19    6.39
 -15   3   0    0.01    7.60
 -15  -3   0    0.09    8.31
  15   3   0    0.83    5.93
  13   4   1    2.19    6.86
 -13   4  -1    0.86   12.87
 -13  -4  -1    9.76   10.74
  15  -1 -14    4.99    7.59
 -15   1  14    8.93    8.32
 -15  -1  14   11.92   17.01
  15   1 -14   14.17   13.75
 -17   1   6    3.72    5.90
  17  -1  -6    2.18    5.78
 -17  -1   6   -0.86    9.20
  17   1  -6    2.92    7.70
 -12   0 -14   20.46   10.76
  12   0  14   -1.92    7.78
  12   0  14    7.87    8.17
  -8   0  22   61.84   25.62
   8   0 -22   51.91   33.82
  -5   0  23   85.34   30.70
   5   0 -23   83.63   25.91
 -13  -1 -12   11.13   13.64
 -13   1 -12    2.94   22.59
  13   1  12    0.36    9.34
  13   1  12   15.81   13.31
  17   0   1    0.39    3.85
 -17   0  -1  -13.78   12.86
 -17   0  -1   -1.12    4.54
  -2  -2  22   36.93   15.52
  -2   2  22   22.32   13.21
   2   2 -22   20.60   18.11
  -2   2  22    0.36   16.82
  -2  -2  22   -0.11   22.30
 -14  -3  -5    1.36    6.89
 -14  -3  -5    0.05    9.03
 -14   3  -5    1.89   21.90
  14   3   5    6.25    5.93
   4   4  16   17.57   12.66
   4   4  16    8.26   17.62
  -4   4 -16    7.36    9.24
   4  -4  16   13.05    9.19
   4  -4  16   24.38   14.70
  -5   6   1    5.33   13.65
  -5  -6   1    7.94    5.51
  -5   6   1   -0.49    7.38
  -5  -6   1    8.18   11.84
  -5   6   1    1.07    6.85
   5   6  -1    1.16   11.14
   5  -3  18   28.22   11.64
   5   3  18   42.87   15.66
   5   3  18   22.56   19.70
  -5   3 -18    7.69   13.41
  -1  -5  14    7.95   14.91
  -1  -5  14   -0.67   21.14
  -1   5  14    0.71   18.94
   1   5 -14    7.61    5.84
  -1   5  14    4.78    9.47
 -12  -3  15   49.35   28.09
  12   3 -15   53.46   18.05
 -12   3  15    0.19    9.15
  -9   4  15   -1.67   16.23
  -9  -4  15   33.09   27.66
   9   4 -15   28.25   10.46
  -9   4  15   -0.66   14.10
 -14  -3  11   21.23   24.32
  14   3 -11   19.60   16.39
 -14   3  11    6.01    9.39
 -13  -4   7    2.10    9.44
 -13   4   7   -1.71   15.62
  13   4  -7    3.37    5.96
  -4   2  22   -0.14   26.81
  -4  -2  22   19.86   15.18
  -4  -2  22   20.56   13.73
   4   2 -22   15.06   18.62
  16   2   2   19.41   13.99
 -16   2  -2   20.93   20.68
 -16  -2  -2   -0.04   18.33
   5   0  21   97.91   25.59
   5   0  21   -0.16   31.89
  -3  -5  14   93.98   25.86
  -3  -5  14   -0.36   47.03
  -3   5  14   43.03   35.92
   3   5 -14   83.63   18.08
  -3   5  14   28.13   41.39
  -2  -1  23   34.93   17.12
  -2  -1  23   35.10   29.87
  -2   1  23    0.63   33.48
  -2   1  23   28.65   20.69
   2   1 -23   35.78   15.88
  16   1   5    7.09    9.26
 -16   1  -5   13.38   26.20
 -16  -1  -5   11.33   12.19
  -3   6  -5    7.03    5.92
   3  -6   5    0.55    5.71
   3   6   5    8.77   11.96
   2   4 -18   24.07   15.21
  -2   4  18    1.62   16.17
  -2  -4  18   -0.02   21.81
  -2  -4  18   23.86   16.56
  -2   4  18   18.97   24.30
  15   1   8    6.16    6.89
 -15   1  -8   -5.40   10.81
 -15  -1  -8    4.35    8.34
  -5  -6   3   32.87   17.34
  -5  -6   3   23.61   10.72
  -5   6   3   -0.83   11.12
   5   6  -3   21.13   10.36
  -5   6   3    0.25    7.12
  -5   6   3   24.53   11.18
   1   3  20   11.29   14.76
   1  -3  20   12.70   18.49
   1  -3  20   15.74   26.43
  -1   3 -20   20.00   13.80
   1   3  20   11.47   16.94
 -17   1   0    0.09   14.42
  17   1   0    8.57    9.20
 -17  -1   0    8.95   11.14
 -10   4  14   13.33   24.19
  10   4 -14   71.23   18.62
 -10  -4  14   65.47   27.21
  13   3   8   -1.13    5.67
 -13  -3  -8    0.32    3.31
 -13   3  -8   -2.12    7.30
   1   6  -7    1.76    6.62
  -1  -6   7    0.07   10.86
  -1   6   7    0.10    5.03
  -1  -6   7    4.94    6.95
  -5  -6  -1    0.51   14.83
  -5  -6  -1    0.89    5.08
   5   6   1    1.19    8.04
  -5   6  -1    0.68    3.92
   2  -6   6    4.28    5.66
  -2   6  -6    3.51    3.45
   2   6   6   -4.29    6.21
   8   4 -16   42.34   16.72
  -8   4  16    0.95   10.71
  -8  -4  16   58.84   15.84
  -8   4  16    6.10   12.77
  -8  -4  16   -0.24   16.98
  -7  -5  12   26.21   25.49
  -7  -5  12   -0.66   14.37
  -7   5  12    6.60    9.59
  -7   5  12   11.51   13.72
  -7   5  12   -3.60   14.92
   7   5 -12   29.95    9.98
  -4  -1  23   18.84   20.51
  -4  -1  23   12.81   19.62
   4   1 -23   14.45    9.56
  -4   1  23   -0.80   12.63
  -4   1  23   -3.28    9.42
   4  -1 -23   16.01   10.50
  -8  -3  19    7.10   17.56
  -8   3  19   -0.30   14.26
   8   3 -19    7.54   12.24
  15   0 -15   -0.46   22.46
 -15   0  15   49.11   16.25
  17   0  -9    5.19    8.76
 -17   0   9    3.68   10.13
   8   5 -11   59.63   15.32
  -8   5  11   11.41   21.63
  -8  -5  11   -0.38   31.96
  -8   5  11    0.56   18.16
  -8  -5  11   66.32   22.87
  -8   5  11   23.08   20.51
 -10   5   7    0.94    4.35
 -10  -5   7    0.26    6.95
  10   5  -7    2.90    5.73
 -10  -5   7   10.33    9.28
 -10   5   7   -0.88    5.00
   4   6   4    0.26    7.20
  -4   6  -4    5.08    5.79
 -16   0  -6    3.75    6.66
  16   0   6    0.46    2.02
 -10   4 -10    0.49   18.33
  10   4  10   -1.51    8.90
  -6   5  13   13.96   15.79
   6   5 -13   64.01   21.68
  -6   5  13   17.26   13.86
  -6  -5  13   -2.44   30.73
  -6  -5  13   60.87   33.45
  -6   5  13   24.99   14.51
 -10   5  -3   -0.18   14.02
  10   5   3    5.38   14.15
 -10  -5  -3   15.33   24.89
 -12  -1  19    2.71   17.07
  12   1 -19    3.68   12.68
  12  -1 -19   -0.01   12.19
 -12   1  19    6.44    8.65
  11   3  12    0.51    3.84
 -11   3 -12    0.01    8.07
  -1   6  -7    1.34    6.85
   1   6   7   -0.10   11.07
   1  -6   7    7.80    7.30
   4   4 -18  133.52   30.97
  -4  -4  18   68.07   29.56
  -4  -4  18  106.64   26.55
  -4   4  18    1.83   26.51
  -4   4  18   57.77   25.90
  -3   2 -21    1.06    8.66
   3   2  21    5.98    8.23
   3  -2  21    2.01   10.54
   3  -2  21    6.52    7.77
   3   2  21   -1.53    9.17
 -15  -3   8   -2.15    5.44
 -15   3   8   -0.19   11.28
  15   3  -8    3.42    6.67
  13   2  11    1.40    6.16
 -13   2 -11    1.30   23.66
 -13  -2 -11    9.55    7.73
 -11   1  20   16.04   18.93
  11  -1 -20    0.03    9.92
  11   1 -20    0.00   10.21
 -11  -1  20   37.53   13.35
   0  -2  22    0.65   11.66
   0   2  22   -0.55    9.26
   0  -2  22   11.12   12.60
   0   2 -22    3.60    9.19
 -17   1   8   14.41   12.92
 -17  -1   8   27.12   12.19
  17  -1  -8   10.15   12.10
  17   1  -8   21.68    9.68
  -4  -6   6   69.74   15.61
  -4   6   6   -4.85    8.55
   4   6  -6   16.04   16.81
  -4   6   6   17.55   17.07
  -4   6   6    4.60   14.95
  -4  -6   6   27.38   28.03
   0  -4  18   64.16   40.21
   0   4  18    0.60   26.30
   0  -4  18   51.56   30.89
   0   4 -18   77.48   22.71
   0   4  18   39.83   21.74
 -12   4  -6    0.89    8.12
  12   4   6   -0.02    6.96
  -1   5 -14   61.06   17.70
   1  -5  14   60.35   23.23
   1  -5  14   -0.62   23.38
   1   5  14    1.12   44.52
   1   5  14   37.52   33.47
  -9   5  -6   -1.06    7.15
   9   5   6    0.05    4.12
  -3   6   7   40.36   14.94
  -3   6   7    0.22   12.49
   3   6  -7   87.14   24.61
  -3   6   7   13.58   22.99
  -3  -6   7  117.37   35.18
  -3  -6   7   91.26   40.13
   1   0  23  101.25   30.15
   1   0  23  148.21   41.12
 -11  -4  13    0.13   14.82
  11   4 -13    6.11    9.51
 -11   4  13   -0.25    6.65
 -15  -3  -2   -0.10   15.42
 -15   3  -2    0.56   14.68
  15   3   2    8.84   10.49
  15   0   9    6.14    5.78
  15   0   9   13.29    6.96
 -15   0  -9  -17.46   11.27
   3  -1  22   -1.09    4.81
   3  -1  22   -2.18    8.19
   3   1  22   -0.02    5.27
   3   1  22    0.64   10.23
   3  -4  17   53.67   17.34
   3   4  17   32.75   41.41
   3   4  17   16.10   32.04
  -3   4 -17   18.47   16.71
   3  -4  17   64.31   36.45
  -7  -4  17   -2.00   16.91
  -7   4  17    3.48   19.63
   7   4 -17   26.87    9.90
  -7  -4  17   12.05   24.68
  -7   4  17    2.80   11.40
  13  -1 -18    0.00   14.23
  13   1 -18   13.62    9.59
 -13  -1  18   16.11   21.11
 -13   1  18   -1.52   16.17
   0  -1  23   25.27   17.09
   0   1  23   -1.70   12.87
   0   1 -23   19.50    9.63
   0  -1  23   -0.20   11.43
   0   1  23   15.43   11.87
   4  -3  19    1.29   11.67
   4  -3  19    1.07    3.52
   4   3  19    0.22   10.50
  -4   3 -19    1.03    5.62
   4   3  19    3.16    7.83
  -5   6   5    9.04   11.97
  -5  -6   5   16.80   12.13
   5   6  -5    5.81    7.39
  -5   6   5   -1.25    9.06
  -5   6   5   -1.26    9.64
  13   0  13    0.09    4.64
 -13   0 -13    1.72    7.05
  13   0  13    1.29    2.81
 -13   4  -3   -1.89   27.68
 -13  -4  -3   40.18   19.25
  13   4   3    9.85   21.90
  -9  -5  10   94.59   31.79
  -9  -5  10  173.22   57.32
   9   5 -10  183.38   39.30
  -9   5  10   70.87   26.83
  -9   5  10   -1.48   23.64
 -13  -3  14   68.34   22.64
 -13   3  14    6.90   11.15
  13   3 -14   65.63   15.46
  -5   6  -3    1.83    4.07
  -5  -6  -3   -4.61   10.23
   5   6   3    3.96    5.86
  -5   6  -3   -1.32    9.17
  11   2 -19    5.32    6.84
 -11   2  19    0.25    7.30
  11  -2 -19    0.00   11.05
 -11  -2  19    4.78    9.58
  15   2 -13    7.32   12.19
  15  -2 -13    6.65   10.06
 -15  -2  13   11.82   10.37
 -15   2  13    1.87    5.72
 -12   2  18   -0.78    4.65
 -12  -2  18   -2.09   11.16
  12   2 -18   -0.33    7.98
  12  -2 -18   -0.28    7.70
 -16  -2  10   24.07   21.78
  16  -2 -10    7.65   10.65
 -16   2  10   11.39   10.40
  16   2 -10   15.31   15.90
  10  -1 -21    0.02   19.17
  10   1 -21    0.00   19.07
 -10  -1  21   24.38   26.29
 -10   1  21   23.98   13.78
  -6  -2  22    7.72   14.29
  -6   2  22   -0.86   21.27
   6   2 -22   11.35   16.32
  -6  -2  22   12.72   12.65
  -6   6   2    0.06    3.84
  -6   6   2    0.95   11.91
  -6   6   2    0.02    5.96
  -6  -6   2    6.18   10.84
  -6  -6   2    4.73    5.77
   6   6  -2   14.75   10.67
  -5   5  14   12.61   11.88
  -5  -5  14   -1.01   14.65
  -5  -5  14    2.60    8.58
   5   5 -14    0.90    9.10
  -5   5  14    0.54    6.54
 -11  -5   2    7.88   11.90
  11   5  -2    8.17    7.37
 -11  -5   2   -1.31    6.50
   0  -6   8    7.78    8.36
   0   6  -8    6.88    7.97
   0   6   8   -3.09   10.99
   0  -6   8    1.23    7.85
  -2   6   8   41.37   30.01
  -2  -6   8   81.77   41.78
  -2   6   8   -2.27   27.38
  -2  -6   8   62.73   35.10
   2   6  -8   74.64   17.06
   6   6   0   17.22   25.65
  -6   6   0    0.77   11.14
  -6   6   0    0.34   12.52
  -6  -6   0   76.16   25.08
  -6   6   0   56.28   19.61
  -6  -6   0   53.94   10.63
  17   0   3    1.48    3.84
 -17   0  -3   -5.16   13.05
  10  -2 -20    0.04   15.89
 -10  -2  20   50.68   37.70
  10   2 -20   65.39   16.91
 -10   2  20    9.65   29.54
   6   1 -23    2.66    5.12
  -6   1  23    0.06    6.80
   6  -1 -23    1.22    5.49
  -6  -1  23   -1.76    6.77
   6   5  11   -0.10    3.61
   7   0 -23    0.75    7.41
  -7   0  23    5.37    9.18
 -17  -1  -2   11.03   10.63
 -17  -1  -2    1.73   11.68
  17   1   2    4.60    8.18
 -17   1  -2   11.02   14.88
 -13   4   9    0.75    6.61
  13   4  -9   13.84    8.78
 -13  -4   9   16.43   21.66
   4   0  22   85.97   27.49
   4   0  22   54.32   21.52
   5   5  12    2.06   11.78
  -7  -3  20   61.60   18.89
  -7   3  20   -1.16   16.53
  -7  -3  20   20.44   21.63
   7   3 -20   30.95   21.94
  15   2   7    0.17    2.91
 -15   2  -7   -6.24   11.55
 -15  -2  -7   -0.23    5.87
  11   5  -4    6.71    9.60
 -11  -5   4   10.50   26.87
 -14  -1 -11   -3.60    6.07
 -14  -1 -11   -2.93    5.36
  14   1  11    7.27    4.63
 -14   1 -11    8.64    4.79
  14   1  11   -1.75    1.95
   9   1  18    0.07    6.35
   9   1  18    6.00    8.17
   9  -1  18    0.97    6.04
   9  -1  18    1.64    5.17
  -2  -3  21   35.52   29.72
   2   3 -21   34.16   11.90
  -2   3  21    0.33   31.75
  -2  -3  21   -0.53   15.29
   9   2  17   20.74   12.01
   9   2  17   -0.01    9.27
   9  -2  17    1.46    5.85
  11   5   0    6.77    7.30
 -11  -5   0   26.61   12.01
 -11   5   0   -0.20   21.17
 -11  -5   0   -4.75    6.04
 -11   5   0   -0.36   19.10
  13  -2 -17   -0.02    5.96
 -13  -2  17    5.89    8.50
 -13   2  17    0.08   10.42
  13   2 -17    3.48    6.35
   8   2  18    0.02   17.78
   8   2  18   35.71   13.67
   8  -2  18    0.71    6.18
   8  -2  18    6.45    5.12
   7   5  10   -0.10    3.55
   8  -1  19    1.99    4.60
   8   1  19   -0.06   12.18
   8   1  19    7.39    9.41
   8  -1  19    1.40    6.98
  10   1  17    5.41   12.10
 -10   1 -17   35.53   14.60
  10  -1  17    3.85    6.86
  10  -1  17    7.14    8.01
  10   1  17    0.02   15.24
 -14   1  17   -0.94    7.80
  14   1 -17    0.40    7.73
 -14  -1  17    3.63    6.03
  14  -1 -17   -0.06    4.29
 -16   1  13   38.34   15.44
  16   1 -13   72.33   16.17
  16  -1 -13   30.45   14.35
 -16  -1  13   55.54   33.63
  -6   6   4    3.04    5.92
  -6  -6   4    5.70   16.13
  -6   6   4    2.02    9.59
  -6  -6   4    1.13    8.92
   6   6  -4    1.93    9.59
  -6   6   4   -0.31    5.89
 -11   4  -9   -1.63   19.32
  11   4   9   -1.29    9.81
 -16  -2  -4    5.65   14.23
 -16   2  -4   14.54   14.58
 -16  -2  -4    0.13    8.02
  16   2   4    4.57    5.70
   4   3 -21  112.61   22.10
  -4   3  21    0.88   48.32
  -4  -3  21   -0.20   46.28
  -4  -3  21   52.25   49.51
   4  -5  13   -0.44    4.32
   4   5  13    0.13    3.54
   4   5  13    0.24    8.73
  -2  -5  15   95.14   39.10
  -2  -5  15    0.65   27.05
  -2   5  15    0.90   43.48
  -2   5  15   17.47   36.76
   2   5 -15   90.96   16.37
 -12   3 -11    2.52   28.78
  12   3  11   -7.74   13.08
  10   2  16    0.10   15.32
  10   2  16    3.80   10.03
  12   4 -12   23.31   10.82
 -12  -4  12   15.94   17.23
 -12   4  12   -0.51   11.19
  -6   6  -2    0.66   18.36
  -6  -6  -2    5.39   13.62
   6   6   2    3.32   13.07
 -12   0  20   13.92   10.38
  12   0 -20    0.04    8.93
   3  -6   7   41.03   14.88
   3  -6   7   27.01   14.22
   3   6   7    0.65   21.34
  -3   6  -7    7.76   10.70
  -6   4  18   37.20   32.10
   6   4 -18  163.49   26.50
  -6  -4  18  159.12   36.95
  -6  -4  18   97.22   38.17
 -10   5   9   11.62   13.58
  10   5  -9   43.49   12.48
 -10  -5   9   36.66   19.78
 -10  -5   9   -0.03   16.49
 -10   5   9    1.29   11.15
 -14  -4   2   11.29   13.25
  14   4  -2    7.63    9.03
 -14   4   2   -1.67   15.96
   4   6   6   -0.70    4.93
  -4   6  -6    0.52    2.18
   4  -6   6   -0.20    1.85
   7  -2  19   21.56    9.87
   7   2  19    0.02   11.53
   7  -2  19    0.61    7.34
   7   2  19   11.13    8.96
  14   4  -4   16.44   19.22
 -14   4   4    0.02   32.82
 -14  -4   4   18.39   18.29
  17   2  -3   60.75   26.57
 -17  -2   3   60.79   21.92
 -17   2   3   46.58   35.41
  -9  -1  22   10.80   12.70
   9  -1 -22    0.01   10.82
   9   1 -22   11.94   10.30
  -9   1  22    7.65   20.84
  17  -1 -10    6.17    8.71
  17   1 -10   -0.26    6.60
 -17   1  10    9.06    9.48
 -17  -1  10    9.39    8.19
 -13   0  19   14.10   12.14
  13   0 -19    0.00   16.80
   7   1  20    0.03    7.40
   7  -1  20   -0.62    8.63
   7   1  20    6.20    6.09
 -17   0  11   24.38   20.63
  17   0 -11   24.22   10.79
  11   1  16    0.49    6.55
  11   1  16   16.52   14.98
 -11  -1 -16    5.47    6.92
 -11   1 -16   32.84   25.10
  11  -1  16    7.10    7.03
  11  -1  16    7.81    6.53
   9  -2 -21    0.02   13.89
  -9  -2  21   13.70   11.61
   9   2 -21    7.79   13.80
  -9   2  21    0.09    9.75
  16   0 -14   68.22   19.42
 -16   0  14   78.41   34.30
  11   0 -21    0.00    8.78
 -11   0  21    2.13   10.70
 -17  -2   5   -6.40    6.74
  17   2  -5    2.02    5.08
 -17   2   5    0.86   11.50
   0  -5  15   19.36   10.97
   0   5  15   11.24   12.91
   0   5  15   -1.08   27.22
   0  -5  15   -0.15   17.20
   0   5 -15   15.21   12.29
  11   5  -6   12.01   11.21
 -11  -5   6   16.95   30.07
 -15   3  10   -1.04    6.66
 -15   3  10   -0.74    3.70
  15   3 -10    2.68    4.07
 -15  -3  10   -1.81   10.11
  10   5   5    3.54   12.23
 -10  -5  -5    2.72   12.42
 -10   5  -5   -1.38   21.82
   2   4  18   27.77   16.20
   2  -4  18   22.19   10.76
   2   4  18    0.48   35.16
  -2   4 -18   16.31   14.81
   2  -4  18   21.52   19.08
   2  -6   8    0.20    6.66
   2  -6   8    1.22    4.60
   2   6   8    0.04    5.39
  -2   6  -8    3.16    4.96
   8  -5   9   -0.46    4.28
   8   5   9    1.19    6.29
   0   3  21   -0.80   11.61
   0   3  21    1.99   10.53
   0   3 -21    7.44    6.28
   0  -3  21    5.84   10.49
   0  -3  21    0.46   14.07
 -14  -3  -7    0.26    6.65
  14   3   7    9.29   10.11
 -14   3  -7    6.57   24.84
   3   3  20    6.73   22.66
   3   3  20   12.65   10.55
   3  -3  20    6.04   12.23
  -3   3 -20    2.39    6.50
   3  -3  20   15.65   10.95
   1   6  -9    0.92    4.52
  -1   6   9   14.75   12.86
  -1   6   9   -0.52    5.91
  -1  -6   9    4.09    7.61
  -1  -6   9    4.38    7.76
  -5   6   7   -1.11   10.49
  -5  -6   7    0.07    9.42
  -5  -6   7   29.28   13.61
  -5   6   7   11.63   12.14
   5   6  -7    6.43    7.98
  -5   6   7   -0.12   11.64
  -4   6   8    8.89   13.08
  -4  -6   8   20.29   14.68
   4   6  -8   11.72   13.21
  -4   6   8    8.87    8.63
  -4   6   8    1.45    8.06
  -2   0  24   68.19   22.86
   2   0 -24   85.43   38.62
  -2   0  24   76.45   28.95
   2  -2  22   -0.22    9.47
   2  -2  22   23.87   20.43
   2   2  22    1.38   22.50
  -2   2 -22   14.96    8.01
 -14  -2 -10    4.87    8.82
 -14   2 -10    1.10   12.52
  14   2  10    2.45    9.06
   5   6   5    0.01    2.81
   4   5 -15   -0.56    7.34
  -4  -5  15    0.75    7.73
  -4  -5  15   -0.91   11.66
  -4   5  15    3.40   10.87
  -4   5  15   -3.96    5.79
  -4   0  24   -0.36   14.31
   4   0 -24    3.65   13.46
  -4   0  24    5.37    9.91
  14   3 -13    7.04   11.54
 -14  -3  13    1.02   10.00
 -14   3  13    2.55    4.75
 -11   2 -15   21.82   10.41
  11   2  15    0.05   12.84
  11   2  15   -9.26    8.21
 -15  -3  -4   -0.06   10.41
  15   3   4    4.65    6.46
 -15   3  -4   13.64   15.15
 -17  -2   1    0.07    9.36
 -17   2   1   12.15   17.06
  17   2  -1   11.98   11.08
   3  -5  14   -0.18    6.57
   3   5  14   -2.55    7.57
   3  -5  14    0.62    4.36
  -3   5 -14    2.47    4.10
   3   5  14   -1.45    9.75
  14   0  12   -1.16    7.56
  14   0  12   13.88    7.57
 -14   0 -12   17.14   20.11
 -11   5  -2    0.02   10.12
  11   5   2   -0.39   10.26
 -11  -5  -2    4.16    9.77
  14   4   0    1.05    4.73
 -14  -4   0    0.72    7.37
 -14   4   0   -1.54   15.17
 -18   0   4   18.37    8.31
  18   0  -4   13.10    7.24
 -14   2  16   -0.18    9.82
  14  -2 -16    0.32    6.13
  14   2 -16    5.65    6.87
 -14  -2  16   12.57   16.26
  14   4  -6    2.77    8.18
 -14  -4   6   -1.09    7.84
  -3   4  19   16.49   16.11
  -3  -4  19   35.09   29.63
  -3   4  19    1.75   28.13
   3   4 -19   27.18   17.89
  -3  -4  19   -0.21   25.38
  16   1   7    3.48    6.78
 -16  -1  -7    2.38   15.11
 -16   1  -7    1.49   19.51
 -16   3   3   -1.13   16.59
 -16  -3   3    0.27   11.79
  16   3  -3   19.09   13.33
   6  -2  20   31.84   11.11
   6   2  20   -6.83   10.59
   6   2  20   -4.01    8.18
   6  -2  20    0.02    6.27
  -6  -6   6    3.13   10.30
  -6   6   6    0.74    6.66
  -6   6   6    0.00    4.10
  -6  -6   6    5.88   16.59
   6   6  -6    4.88   10.02
  -6   6   6    3.04    5.60
   6   6  -6    2.89    9.65
   2   1  23   11.42   10.89
   2   1  23    0.60   12.24
   2  -1  23   36.90   18.17
   2  -1  23   -0.20   17.50
 -14   0  18   42.67   25.06
  14   0 -18    0.01   19.04
   3   6  -9   46.24   21.90
  -3  -6   9   37.77   20.74
  -3  -6   9   43.15   35.88
  -3   6   9   30.69   25.28
  -3   6   9   -4.18   22.13
 -18   0   2    6.03    5.69
  18   0  -2    9.16    8.23
  -7  -6   1   39.63   31.67
  -7   6   1   -0.83   22.67
   7   6  -1    8.06   10.88
  -7  -6   1   15.52   14.62
  -1  -4  19    0.03   23.55
  -1   4  19   -2.35   18.76
  -1   4  19   17.91   25.18
  -1  -4  19   26.31   17.95
   1   4 -19   34.40   16.54
  -3   2  23   20.30   17.20
  -3   2  23   -0.77   34.20
  -3  -2  23   41.04   30.19
  -3  -2  23   35.89   17.10
   3   2 -23   23.11   13.82
 -13   4  -5    0.52   43.14
 -13  -4  -5   36.74   20.61
  13   4   5    3.72   21.49
   1  -6   9   -1.30   11.44
  -1   6  -9   -0.02    3.15
   1  -6   9    3.26    5.11
   1   6   9    6.56    9.28
  17   2  -7   61.64   20.89
 -17  -2   7   46.09   26.99
  17  -2  -7    4.49   13.05
  10   0 -22   63.81   22.78
 -10   0  22   66.38   29.16
 -16  -3   5   25.27   14.14
  16   3  -5    8.59    9.64
 -16   3   5    2.00   33.69
  18   0  -6   19.63   13.92
 -18   0   6   20.95   15.37
  -7   6   3    3.54   16.32
  -7   6   3    4.15   15.80
  -7  -6   3  129.74   52.42
   7   6  -3   95.55   20.82
  -7  -6   3   57.37   16.61
  -7   6   3   71.19   21.06
  15  -1 -16   -0.40   21.12
 -15  -1  16   31.51   17.35
  15   1 -16   47.63   14.57
 -15   1  16   -0.59   23.54
   7   4  15   14.90   17.40
   7   4  15    5.43   20.43
   6   1  21    0.06   13.27
   6   1  21    4.69    6.92
   6  -1  21    3.09   10.49
   6  -1  21    0.17    9.65
 -12   1 -15   24.01   24.77
 -12  -1 -15   17.16   12.11
  12   1  15    0.33    6.70
  12   1  15   14.83    9.31
   8   4  14   28.65   27.66
   8  -4  14   68.12   21.77
   8   4  14   -2.39   30.93
   6   3 -21   -0.05    3.87
  -6   3  21   -0.45    8.77
  -6  -3  21    2.93    9.06
  -6  -3  21   -6.43   10.78
 -16   3   1    0.90   15.27
  16   3  -1   13.72   11.90
 -16  -3   1   -0.01    9.96
   6   6   4   -1.79   10.98
   3   0  23   22.07   15.61
   3   0  23   -0.70   21.06
  -1  -2  23   -0.11   17.57
   1   2 -23    8.90   14.54
  -1   2  23    1.69   13.86
  -1  -2  23   19.19   12.01
  -9   5  -8    1.12    5.83
   9   5   8   -0.93    5.26
   7   6   1    1.63    7.25
  -7   6  -1    1.01   17.04
  -7  -6  -1   10.47   20.26
   3   1 -24   57.36   30.94
  -3   1  24   -0.42   23.99
  -3  -1  24   71.54   22.29
  -3   1  24   34.86   15.76
  -3  -1  24   49.15   33.84
 -16   2  12    3.90    8.56
 -16  -2  12    2.91    9.60
  16   2 -12    7.34   11.59
  16  -2 -12    1.34    8.56
   8   5 -13   60.97   17.21
  -8  -5  13   32.42   28.07
  -8  -5  13    0.69   24.45
  -8   5  13   10.72   15.94
  -8   5  13   -6.73    9.62
 -17   1  -4   -2.82    7.76
 -17  -1  -4    2.31    9.96
  17   1   4    1.32    4.40
   6   4  16   20.52   58.56
   6   4  16   75.31   25.73
   0   0  24   61.19   24.51
   0   0  24   -1.28   34.08
  16   0   8   19.11    8.88
 -16   0  -8  -16.74   29.99
 -12   4  -8    1.82   10.49
  12   4   8   -1.31    4.96
   9   0  19    1.48    4.91
   9   0  19    6.60   10.43
   9   4  13   -0.86    5.52
  13   3  10   -8.26   13.09
 -13   3 -10   -2.65   17.95
  12   2  14    0.04   18.49
  12   2  14  -19.66   12.03
 -12   2 -14   51.84   26.54
  -7  -5  14   21.50   16.97
  -7  -5  14   -0.60   26.83
  -7   5  14    4.16   18.44
  -7   5  14    0.08   18.28
   7   5 -14   20.39   10.85
  -8  -2  22   41.70   39.62
   8   2 -22   73.06   17.85
   8  -2 -22   -0.01   18.97
  -8   2  22   -0.06   36.30
  11   3 -18   54.09   17.50
 -11  -3  18   45.92   42.20
 -11   3  18    0.67   26.80
 -17   0  -5   19.62   25.03
  17   0   5    8.07    6.77
 -13   4  11    1.07    5.26
 -13   4  11   -1.27    4.25
 -13  -4  11    0.78   15.05
  13   4 -11    4.86    5.80
  10   0  18    0.37    2.99
  10   0  18    0.02    2.55
  -5  -2  23   24.05   23.98
  -5   2  23    1.24   25.44
  -5  -2  23   19.07   26.57
   5   2 -23    7.11   18.17
  -9  -5  12   13.29   12.35
   9   5 -12   10.10    7.96
  -9  -5  12   -0.24   11.95
  -9   5  12    1.51    9.92
  -9   5  12    1.41    6.75
 -11  -5   8   14.08   29.86
  11   5  -8   11.82   10.43
  15   1  10   25.10   14.72
  15   1  10    6.99   10.71
 -15   1 -10  -10.72   30.76
 -15  -1 -10   -2.04   22.28
 -17  -2  -1    0.07   10.81
 -17   2  -1    6.08   21.36
  17   2   1    2.95    8.14
  -8  -1  23   85.99   29.38
  -8   1  23   81.00   30.77
   8   1 -23   87.33   38.93
   8  -1 -23    0.02   41.19
  -6   0  24    0.12   14.08
   6   0 -24    2.10    7.07
  18   1  -3   18.48   15.07
 -18   1   3   21.56   24.69
 -18  -1   3   26.28   11.95
  18   0   0   10.31    8.36
 -18   0   0    0.78    9.54
 -18   0   0   42.58   26.64
   2   5  15   -2.23   10.82
   2  -5  15    5.19    7.25
   2  -5  15   -0.41   15.06
   2   5  15   -2.22   13.40
  -2   5 -15    2.59    6.30
   5   4 -19   10.61    7.64
  -5  -4  19   -0.37   11.10
  -5  -4  19   10.64   20.28
  -5   4  19   -0.10   10.37
  -5   4  19   -0.20   18.38
  18  -1  -5    2.75    6.69
  18   1  -5    3.56    9.42
 -18  -1   5   10.25   11.30
  -1  -1  24   -1.92    5.38
  -1   1  24    1.84    3.77
   1   1 -24    0.44    7.73
  -1   1  24    1.17   10.88
  -1  -1  24    0.03    9.46
 -10  -3  19   17.71   14.91
 -10   3  19    2.62   18.49
  10   3 -19   10.53   17.70
 -16  -3   7   51.32   23.86
 -16   3   7   -3.48   29.31
  16   3  -7   59.30   17.79
  -7   6   5    8.96   11.87
  -7   6   5    0.07    4.07
   7   6  -5    8.19    7.27
  -7   6   5   -0.06    4.25
  -7  -6   5   19.04   11.88
  -7  -6   5   -0.82   11.71
   8   3  17   27.14   25.21
   8   3  17   38.07   18.28
 -14   4  -2   -0.24   38.61
 -14  -4  -2   32.16   17.83
  14   4   2    8.00   11.61
   8   0  20   -1.66   16.02
   8   0  20   70.18   14.49
 -12   3  17    0.03   11.00
 -12  -3  17   32.77   18.66
  12   3 -17   49.31   20.15
  -2  -6  10   38.68   38.80
  -2   6  10   -3.74   26.22
   2   6 -10   67.85   22.93
  -2   6  10   22.04   34.61
   9   3  16   15.50   19.32
   9   3  16    7.50   28.97
  10   4 -16   47.00   15.53
 -10  -4  16   51.92   40.36
 -10   4  16   -6.84   23.12
 -14  -4   8   26.50   20.48
  14   4  -8   14.30   22.54
   0   6  10  -11.47   17.34
   0   6 -10   71.10   19.58
   0  -6  10   97.68   35.60
   0  -6  10   23.50   19.31
   0   6  10   82.03   36.58
   5   2  21   19.25   32.85
   5  -2  21    1.89   18.59
   5  -2  21   77.05   26.19
   5   2  21   31.82   25.49
  -5  -1  24   49.52   23.75
  -5   1  24   -2.81   23.76
  -5  -1  24   36.25   23.46
   5  -1 -24   38.48   31.89
   5   1 -24   61.63   18.55
 -18   0   8   -0.49    2.81
  18   0  -8    0.52    4.05
 -11   0 -17   10.34   14.80
  11   0  17    7.96   12.44
  11   0  17   13.54   13.14
   5   4  17    9.22   14.65
   5   4  17    0.60   17.06
  -9  -4  17    1.66   42.58
   9   4 -17  163.25   29.25
  -9  -4  17  169.37   42.12
  15   0 -17  117.69   27.15
 -15   0  17  127.97   53.64
   7  -3  18    4.17    9.11
   7   3  18    3.38    8.19
   7   3  18    1.37   10.97
  -1   4 -19    3.78    5.68
   1  -4  19    6.57   12.46
   1  -4  19    6.95   11.83
   1   4  19    4.01   15.94
   1   4  19   -0.81   12.17
  -2   3 -21    2.89   12.37
   2   3  21    5.45   20.71
   2   3  21   11.54   14.63
   2  -3  21    8.72   22.60
   2  -3  21   11.35   15.12
  -1  -5  16   -0.46   10.75
  -1  -5  16    0.34   15.31
   1   5 -16    3.45    6.89
  -1   5  16    0.14   14.30
  -1   5  16   -0.21   11.32
  11   5   4    0.79   16.60
 -11   5  -4   -3.08   17.75
 -11  -5  -4   19.77   16.88
   9   0 -23   -0.02    9.00
  -9   0  23    1.81   11.94
  16   3   1    2.24    8.24
 -16   3  -1    0.18   19.39
 -16  -3  -1    0.03   11.82
 -15   2  15    0.53   13.43
  15   2 -15   23.06   15.74
 -15  -2  15   19.42   22.56
  15  -2 -15    0.27   13.86
  18   1  -1    2.49    6.27
 -18   1   1    0.93    9.97
 -18  -1   1    0.11    7.67
 -11   4  15   -2.27   15.83
 -11  -4  15   28.90   19.04
  11   4 -15   31.84   20.15
  -6  -5  15   65.68   41.48
  -6  -5  15    0.38   24.76
  -6   5  15   26.04   29.11
  -6   5  15   40.85   30.50
   6   5 -15   58.12   15.63
 -12  -5   3   11.72   17.81
  12   5  -3    7.48   18.30
   3   5 -16   31.40   18.61
  -3  -5  16    0.55   33.73
  -3   5  16   -2.39   30.34
  -3   5  16   27.81   15.66
  -3  -5  16   16.51   28.29
  10   3  15   -0.07   10.08
  10   3  15    6.07   11.18
 -17   2   9   13.27   11.31
  17  -2  -9    9.27   11.22
  17   2  -9   18.06   10.91
 -17  -2   9   36.20   23.43
   5  -1  22   -0.78   10.53
   5  -1  22   32.20   10.94
   5   1  22   -0.59   13.65
   5   1  22   29.47   12.05
  10   4  12    0.27    2.93
 -10   4 -12   -1.04    6.06
 -16   2  -6   -0.63   14.67
 -16  -2  -6   -1.48   14.39
  16   2   6    6.04    5.56
  13   1  14   -5.58   10.94
  13   1  14   10.17   16.05
 -13  -1 -14   13.01   14.30
 -13   1 -14   30.08   15.45
  -7  -6  -3  -20.60   19.12
  -7   6  -3   -0.43   25.68
   7   6   3    2.80   17.34
 -17  -1  12   20.87   17.79
  17   1 -12   -0.37   13.58
 -17   1  12    6.71   11.73
  17  -1 -12   10.15   11.81
   4  -6   8   -2.81   11.91
   4   6   8   88.35   20.84
  10   5 -11   15.03   14.26
 -10   5  11    4.29   10.44
 -10   5  11    3.03    8.78
 -10  -5  11   14.78   22.07
 -10  -5  11   -0.51   11.74
  12   5  -1    1.87    7.24
 -12  -5   1    6.44   19.84
  18   1  -7    0.04    3.89
 -18   1   7    0.86    5.25
 -18  -1   7    7.31    7.87
  18  -1  -7    0.58    4.92
  -9  -3  20   17.54   26.36
   9   3 -20   16.95   11.57
  -9   3  20    8.42   12.77
   5   6  -9   81.42   22.72
  -5   6   9    4.16   19.32
  -5  -6   9   -1.03   18.36
  -5   6   9   24.56   20.11
  -5  -6   9   -0.37   37.59
  -5   6   9   29.13   12.71
   7   0  21   13.36   13.13
   7   0  21   -1.01   24.09
   7   0  21   66.86   18.35
  -6   6   8   76.85   31.67
  -6   6   8   42.98   26.14
  -6  -6   8   97.67   42.76
   6   6  -8  147.68   35.13
  -6   6   8   22.83   16.57
  -6  -6   8  152.91   60.25
  -3   6  -9   20.44   15.14
   3  -6   9   84.87   18.51
   3   6   9    0.21   17.71
   5   6   7    0.00    2.69
 -13   3  16    0.19   11.86
 -13  -3  16    4.80   23.38
  13   3 -16    9.51    8.86
  15   3 -12   91.38   19.36
 -15   3  12    4.32   17.52
 -15  -3  12   53.71   44.70
  -8  -4  18   62.72   44.97
  -8   4  18    4.95   32.81
   8   4 -18  118.44   29.27
  -8  -4  18   -0.76   30.30
  -3   3  22    1.53   23.31
  -3  -3  22   16.17   21.20
   3   3 -22   10.50    8.58
  -3  -3  22    0.85   11.52
 -10   5  -7    2.64    8.84
  10   5   7   -1.40    4.89
 -15   0 -11   -7.74   21.43
  15   0  11    4.38    6.33
 -15   0 -11   17.01   19.08
 -12  -5   5   -5.11    7.97
  12   5  -5    5.42    7.68
  17   0 -13   -0.82    4.13
 -17   0  13    7.01    8.07
   1   2  23   -1.51    9.05
   1  -2  23   12.18   13.67
   1  -2  23   -0.16   11.18
  -1   2 -23    3.28    9.05
   6   3  19   12.88   20.89
   6  -3  19    6.06    6.64
   6   3  19   -7.39   15.58
 -15   2  -9   -1.28   29.66
 -15  -2  -9    1.84   11.58
  15   2   9   10.79   11.14
  12   0  16    1.39    4.20
  12   0  16    3.26    6.68
 -12   0 -16    0.24   16.31
   4   6 -10   12.95    8.45
  -4   6  10   -3.60   13.96
  -4  -6  10   -1.12   19.68
  -4   6  10    2.30   14.53
  -4  -6  10   14.15   22.13
  -8  -6   2   -1.61    5.30
  -8  -6   2    0.48    7.15
  -8   6   2    0.17    8.21
   8   6  -2    0.93    6.97
  16  -1 -15   -0.36   13.35
  16   1 -15   11.63    9.01
 -16   1  15    8.37   14.90
 -16  -1  15    5.63   19.71
  13   2  13   -7.08    7.17
  13   2  13   -0.13   10.85
 -13   2 -13   28.69   16.17
  -1  -3  22    0.19   12.16
  -1   3  22    1.07   27.68
  -1  -3  22    9.63   23.56
   1   3 -22   19.38    9.39
  15   3   6   18.25   10.03
 -15  -3  -6    2.45   12.18
 -15   3  -6   15.32   24.57
   4   4  18   11.23   18.44
   4   4  18   23.02   14.01
   4  -4  18   26.64   16.28
   4  -4  18   10.27   10.98
  -4   4 -18    7.28   11.08
  -8   6   0    0.83    8.52
   8   6   0    0.99    5.84
  -8  -6   0    2.70    7.14
  -8  -6   0    0.60   10.34
 -12   4  14   -4.91    7.14
 -12  -4  14    0.28   16.35
  12   4 -14    6.88    6.23
  11   3  14    0.09   15.40
  11   3  14   -3.28   10.00
 -11   3 -14   -0.55   12.36
  -2   6 -10   15.17   11.57
   2   6  10   -2.12   17.97
   2   6  10   11.37   22.05
  -2   6 -10   17.89   12.36
   2  -6  10   29.32   16.30
   6   6   6    0.07    4.57
   6  -6   6   -0.76    4.93
 -18   0  -2   -7.82   17.97
  18   0   2    3.70    5.45
  -7   6   7    0.04    7.81
   7   6  -7    6.38    6.93
  -7   6   7   -4.33    7.82
  -7   6   7    9.46   11.40
  -7  -6   7   13.20   12.25
  -7  -6   7   -0.43    8.01
  12   5   1    3.65    7.94
 -12   5  -1   -0.05   23.29
 -12  -5  -1    7.96   22.55
 -16  -3   9   13.01   16.56
  16   3  -9   18.24   11.82
  -1   5 -16   20.89   15.65
   1   5  16   26.65   16.86
   1   5  16    1.91   35.63
   1  -5  16   -0.96   19.67
   1  -5  16   31.69   12.50
   8   6  -4    1.65    4.42
  -8  -6   4   15.21    7.39
  -8  -6   4   -2.17    2.39
  -8   6   4   -0.32    4.80
   1   1  24    9.22   11.95
  -1   1 -24   12.84    8.72
   1  -1  24   18.89   17.27
   1  -1  24   -0.04   10.28
   1   1  24    0.04   11.81
   1   6 -11   85.63   25.40
  -1   6  11   50.82   43.55
  -1  -6  11   -1.86   39.51
  -1   6  11   -5.49   34.06
  -1  -6  11   84.13   26.08
 -17  -2  -3    6.67   14.91
 -17  -2  -3    0.13   12.74
 -17   2  -3    0.18   23.90
  17   2   3    3.32    5.49
   6   5  13   -3.46    9.51
   6   5  13   -0.02    6.50
 -18  -1  -1   48.15   12.21
 -18  -1  -1    5.37   23.02
  18   1   1   14.96   16.75
 -18   1  -1   23.23   27.93
   7   2 -23   13.54   17.45
  -7  -2  23   -1.41   15.21
  -7  -2  23   17.17   13.73
  -7   2  23   -0.52   22.39
   7  -5  12    0.09    8.43
   7   5  12    4.88   12.41
  -5   5  16   36.71   41.04
  -5   5  16   44.89   36.73
  -5  -5  16   27.79   45.93
   5   5 -16  109.62   30.64
  -5  -5  16   -0.62   48.04
   2   0  24   14.70    8.51
   2   0  24   -1.59   11.63
   4  -2  22    8.98    9.62
   4   2  22    4.53   13.12
   4  -2  22   26.95   12.87
   4   2  22    7.63   14.73
  -5   3  22    2.80   33.98
   5   3 -22   26.48   14.55
  -5  -3  22   22.84   33.07
  -5  -3  22   35.80   21.39
  11   4  11   -0.46    8.11
 -11   4 -11   -0.77   16.61
   6   0  22    1.49    7.00
   6   0  22    4.34    8.36
 -18   0  10    4.32    5.25
  18   0 -10    0.15    4.62
  13   4   7    2.25    6.77
 -13   4  -7    1.04   22.98
  -2  -4  20   47.13   32.02
  -2  -4  20    0.30   24.42
  -2   4  20   25.59   17.66
  -2   4  20   -0.96   31.26
 -14  -4  -4   26.47   19.09
  14   4   4    7.54   19.69
 -14   4  -4    0.62   27.03
  -8   3  21    0.59   42.00
  -8  -3  21    1.17   33.66
  -8  -3  21  143.56   50.03
   8   3 -21  142.99   36.79
 -14   3  -9   -2.21   18.66
  14   3   9   -0.92    8.44
   5   5  14   -0.32   10.21
   5   5  14    0.18    4.09
 -11   5  10    5.80    8.32
 -11   5  10    2.50   10.06
 -11  -5  10    7.07   14.91
  11   5 -10    8.67    9.59
 -12  -1  21   20.33   37.72
 -12   1  21   29.65   19.87
  12   1 -21   51.29   16.44
  12  -1 -21    0.04   16.14
   7   1 -24    3.97    7.24
  -7   1  24    1.48   16.26
  -7  -1  24    3.74   16.41
   7  -1 -24   -0.01    7.72
  -3   6  11   36.13   32.17
   3   6 -11   47.58   13.53
  -3  -6  11   40.95   21.57
  -3  -6  11   39.15   36.78
  -3   6  11   -6.85   15.45
 -18   1   9    2.73    7.17
  18  -1  -9    2.51    6.67
 -18  -1   9    4.36   10.87
  18   1  -9   -0.36    8.39
  13   1 -20    0.00   16.15
 -13   1  20   -1.61   17.59
  13  -1 -20    0.04    9.55
 -13  -1  20   30.09   13.67
 -16   0  16   15.48   11.58
  16   0 -16    0.69   15.59
 -14  -4  10    7.73   19.19
  14   4 -10    2.04   12.90
  12   5  -7    5.88   15.02
 -12  -5   7    7.73   15.28
   5   3  20   20.68   20.60
   5  -3  20   18.32    8.25
   5   3  20   34.23   16.09
   7   4 -19   84.62   19.79
  -7   4  19   10.09   23.64
  -7  -4  19   99.22   29.09
  -7  -4  19    0.75   48.74
  15   4  -3   10.36   16.40
 -15  -4   3    1.66   25.19
   8   5  11   -0.35    4.69
 -16  -3  -3    0.03   17.32
  16   3   3    2.88    6.76
 -16   3  -3   24.08   26.66
 -14   3  15    6.96   14.84
 -14  -3  15   20.35   29.59
  14   3 -15   20.25   19.14
   8   6   2   65.11   25.50
  -8   6  -2   -2.21   60.47
  -8  -6  -2  118.82   44.75
  -3   0  25   18.27   20.01
   3   0 -25   13.84   21.32
  -3   0  25    3.98   26.97
 -13   0 -15   10.37   17.79
  13   0  15    0.95    7.11
  13   0  15    6.75    7.37
   4  -1  23   33.21   15.50
   4   1  23   -0.21   31.97
   4   4 -20   11.63   11.98
  -4  -4  20   -1.08   17.38
  -4  -4  20   17.27   19.10
  -4   4  20   -1.41   18.48
  -4   4  20   -0.19   10.37
  -4   4  20    0.16   18.42
  -8   0  24   31.80   41.88
   8   0 -24   41.87   20.46
 -17   1  -6    4.89   12.94
  17   1   6    2.21    7.37
 -17  -1  -6    7.05   17.08
 -14   1 -13   34.43   21.42
  14   1  13   29.76   12.61
  14   1  13   -6.27   14.26
 -14  -1 -13   19.35   21.99
 -12   2  20   -1.09   10.88
 -12  -2  20   29.63   14.84
  12   2 -20   18.98   17.89
  12  -2 -20    0.10   10.02
   1   6  11    0.04    5.99
   1   6  11    1.16   13.71
   1  -6  11    3.90    9.54
  -1   6 -11    1.87    5.64
   1  -6  11   -0.18    7.42
  15   4  -5   11.52   18.96
 -15  -4   5   15.37   30.89
  11  -1 -22    0.01   19.06
  11   1 -22    0.00   18.34
 -11   1  22    8.86   21.17
 -11  -1  22   17.72   14.39
  15   4  -1    2.26    6.23
 -15  -4   1   -1.72   15.83
  12   3  13  -19.15   15.36
  12   3  13    0.01   14.36
 -12   3 -13    0.86   33.84
 -16  -1  -9   -5.41   11.26
  16   1   9    1.52    5.09
 -16   1  -9  -16.91   16.81
  13   2 -19   60.30   18.05
  13  -2 -19    0.11   26.35
 -13   2  19   -1.26   29.60
 -13  -2  19   29.86   39.37
 -14  -1  19   24.65   25.89
  14  -1 -19   -0.18   17.98
  14   1 -19   27.20   20.12
 -14   1  19    0.66   20.36
  17   2 -11   -0.22    4.58
 -17   2  11   -0.60    5.16
  17  -2 -11   -1.55    5.81
 -17  -2  11   -3.64   10.78
  -8   6   6   10.55   14.02
  -8   6   6    0.06    7.81
  -8  -6   6    6.49   14.10
   8   6  -6    8.10   13.72
  -8  -6   6   -2.23   24.42
  16   2 -14   32.54   14.48
 -16  -2  14   38.43   20.25
 -16   2  14    9.42   18.74
  16  -2 -14   12.10   19.62
  11   2 -21   12.87    9.62
 -11   2  21   -0.73   17.50
  11  -2 -21    0.01    9.29
 -11  -2  21    0.61   22.39
   4   5  15   -5.41   16.37
   4   5  15   -1.50   22.04
   4   5  15   -2.42   14.89
   0   4  20    1.87    9.84
   0  -4  20   -0.52   10.19
   0  -4  20    1.48   15.82
   0   4 -20    2.05    7.78
   0   4  20    2.51    7.62
 -13  -4  13   16.32   21.01
 -13   4  13    1.93   13.83
  13   4 -13   32.84   13.89
   1   3  22   27.99   26.10
   1   3  22   20.15   24.38
  -1   3 -22   55.45   23.60
   1  -3  22   -0.70   31.00
   1  -3  22   88.11   26.26
   3   4  19   -0.70    6.22
   3   4  19   -0.15   13.56
   3  -4  19   -5.89   11.59
  -3   4 -19    1.12    5.16
   3  -4  19    1.42    3.42
  11   5   6   -0.53    4.98
 -11   5  -6    0.88   15.07
  -1   0  25   -1.49    6.12
  -1   0  25    1.51    7.72
   2   2 -24    4.33    6.69
  -2   2  24    0.50   17.23
  -2  -2  24    5.24   14.91
  -2  -2  24    0.50    8.05
 -17   0  -7   -3.30   11.39
   5   0 -25    0.60   15.67
  -5   0  25    5.68   10.00
  -5   0  25    3.79   19.71
   2   5 -17   23.43   16.24
  -2  -5  17    1.32   17.80
  -2  -5  17   33.59   24.68
  -2   5  17    0.48   17.69
  -2   5  17   21.03   14.91
 -12  -5  -3   -1.84   21.25
 -12   5  -3    1.58   20.99
  12   5   3    4.04   12.05
  -4   2  24   13.49   11.56
   4   2 -24   20.47   12.98
  -4  -2  24   18.57   28.80
  -4  -2  24   28.90   27.24
  -4   2  24   -2.06   32.34
   9   5  10   -1.26    6.54
 -14   2 -12    8.66    8.20
  14   2  12   -3.28    5.61
  14   2  12   -0.06    5.22
 -18   2   4   -1.30   20.88
  18   2  -4   22.67   15.41
 -18  -2   4    0.06   21.12
   5   0  23   -1.25    6.50
   5   0  23    0.32    8.99
   6   6 -10   43.72   14.11
  -6  -6  10   22.29   22.40
  -6  -6  10   -0.55   29.64
  -6   6  10   14.48   19.70
  -6   6  10    8.80   12.06
  15   4  -7    6.37   14.82
 -15  -4   7    8.74   24.56
  14  -2 -18   -0.02    7.79
 -14  -2  18   -6.28   11.27
  14   2 -18    0.83    8.52
 -14   2  18   -0.20    8.18
 -18  -2   2    0.19    8.23
  18   2  -2    4.29   10.43
 -18   2   2   25.91   26.67
 -12   4 -10   -0.55   12.15
  12   4  10   -1.64    9.73
   9   5 -14   26.44   10.48
  -9  -5  14    1.15   25.97
  -9  -5  14   34.64   27.12
  -9   5  14    5.87   15.23
  -9   5  14   -4.07    8.62
 -10  -2  22    7.67   14.63
  10  -2 -22    0.01   17.21
  10   2 -22   12.55   16.97
 -10   2  22    5.54   20.35
  -2  -6  12    7.35    9.24
  -2  -6  12   -0.08   18.27
  -2   6  12   -1.90   16.72
   2   6 -12    4.36    5.75
  -2   6  12   -0.49    7.55
   2   1 -25   12.34   22.25
  -2   1  25   23.80   17.85
  -2  -1  25   27.58   16.30
  -2   1  25    0.34   18.03
  -2  -1  25   20.06   24.51
 -18  -2   6   18.04   14.98
 -18   2   6    1.85   15.73
  18   2  -6    1.37   11.03
   0  -5  17   -0.56   39.31
   0   5 -17   26.02   18.22
   0   5  17   23.81   29.53
   0  -5  17   45.64   26.63
   0   5  17   -1.44   38.09
  -4  -5  17   -1.70   11.84
  -4  -5  17   -2.25   10.03
  -4   5  17   12.98   10.34
  -4   5  17    5.04   14.78
   4   5 -17    3.85   11.06
  10   1 -23    7.04    9.78
 -10   1  23    9.39   11.27
 -10  -1  23   -0.13   21.82
  10  -1 -23   -0.02   10.13
  -8   5  15   -4.59   14.93
   8   5 -15   15.43   14.83
  -8  -5  15   18.54   14.16
  -8  -5  15   -0.63   13.15
  -8   5  15    7.17    9.00
   4  -1 -25    8.82   12.80
  -4   1  25   15.23   18.66
  -4  -1  25   11.94   13.33
  -4   1  25   -0.14   25.93
  -4  -1  25    9.91   25.40
   4   1 -25    8.18   20.21
 -15   4  -1   -0.83    9.85
 -15  -4  -1   -1.92   12.81
  15   4   1    1.60    4.99
 -18   1  -3   -2.82   16.63
  18   1   3    0.30    5.15
 -18  -1  -3   -0.50    4.28
 -18  -1  -3   -4.48    7.49
  -7   6   9   -0.46    3.62
  -7   6   9    1.20    4.38
   7   6  -9   -0.15    4.49
  -7  -6   9   -1.39   12.98
  -7  -6   9   -0.56    6.03
  -7   6   9    6.50    5.93
  -9  -6   1   -2.38    9.43
   9   6  -1    8.31   13.34
  -9  -6   1   29.88   23.92
  -9   6   1   -1.17   19.58
 -16   0 -10   -7.95   27.24
   4  -3  21   17.54   16.69
   4   3  21   11.41   26.42
  -4   3 -21   12.90   15.10
   4   3  21   15.97   34.60
   4  -3  21   28.64   17.65
 -17  -3   4    0.16   11.17
 -17   3   4   -1.23   16.11
  17   3  -4    7.15    7.25
  -5  -6  11   -0.70   11.97
  -5   6  11   -0.34    8.38
  -5   6  11    4.13    8.87
   5   6 -11    1.99    8.72
  -5  -6  11   -0.27   14.19
   9   6  -3    8.07   10.71
  -9   6   3   -0.43    7.93
  -9  -6   3    0.98    5.35
  -9  -6   3   -1.57   18.81
  16   3 -11    9.21   10.41
 -16  -3  11   11.57   24.83
 -18   0  -4   22.41   37.36
 -15  -1  18    8.92   20.09
  15   1 -18   16.94    9.65
  15  -1 -18   -0.24    8.49
 -15   1  18    1.27    9.72
 -17   1  14    4.76    8.56
  17   1 -14    0.02    9.14
  17  -1 -14   -0.25    8.00
 -17  -1  14    1.30   12.05
   0   6  12    3.08   15.29
   0   6 -12    0.12    4.17
   0  -6  12   -0.23   14.17
   0   6  12    2.02   11.36
   0  -6  12   15.76   11.28
   8   6   4   -0.88    5.37
  -8   6  -4    0.33    8.49
  -3   2 -23    0.63    4.53
   3   2  23    2.70    6.93
   3  -2  23    5.65   10.63
   3   2  23    1.01   13.55
   3  -2  23   -0.13    5.40
  -7   3  22   -0.26   54.40
  -7  -3  22  127.06   38.71
  -7  -3  22   99.36   42.07
   7   3 -22  134.12   44.55
   3   5  16    0.21   25.34
   3  -5  16   68.65   21.56
   3   5  16   49.00   18.70
   3  -5  16    7.25   13.15
   5   6   9    1.69   12.14
 -17  -3   2   -0.08    6.21
  17   3  -2    1.54    7.18
 -17   3   2   -0.16   16.66
   6   4 -20   52.39   16.33
  -6  -4  20   27.32   24.03
  -6  -4  20   17.85   42.50
  -6   4  20   -1.62   35.75
   4  -6  10   -0.13    3.33
   4   6  10    0.09    2.77
  13   0 -21   -0.02   13.00
 -13   0  21    7.90   16.20
 -10   5  13    3.01    8.73
  10   5 -13    6.79   11.91
 -10  -5  13    0.37   10.86
 -10   5  13    1.19    9.89
 -10  -5  13    3.54   11.40
  12   5  -9   19.07   23.08
 -12  -5   9   32.41   38.85
 -14   0 -14   -0.19   12.51
  14   0  14    1.14    4.73
   0  -2  24   19.44   11.75
   0   2 -24    6.51   15.46
   0  -2  24   -0.33   18.73
   0   2  24   -0.93   14.18
  16   2   8    6.50    8.07
 -16   2  -8   -7.89   13.41
 -16  -2  -8    1.60    6.23
  12   0 -22    0.02    9.86
 -12   0  22   13.99   11.76
  13   5  -2    0.91    9.77
 -13  -5   2    0.93   15.59
  18   1 -11    0.21   11.56
 -18   1  11    5.77   10.42
 -18  -1  11   15.20   14.51
  18  -1 -11    2.34    9.76
  15   3 -14   26.35   11.51
 -15   3  14    4.62    7.47
 -15  -3  14    8.39   16.49
   9   2  19   52.49   24.82
   9   2  19    0.06   19.47
  17   3  -6   20.53   13.06
 -17   3   6   -0.63   39.88
 -17  -3   6   22.60   18.18
 -19   0   3   -0.54    3.86
  19   0  -3    0.27    1.96
  19   0  -5   -0.33    4.70
 -19   0   5    1.57    5.40
   6   6   8    0.21    4.61
 -17   2  -5   24.57   21.02
  17   2   5   -2.80    7.74
 -17  -2  -5    5.84   13.29
  -7  -5  16   -0.53   22.72
  -7   5  16    0.89   16.66
  -7   5  16    6.09    9.59
  -7  -5  16    1.62   23.34
   7   5 -16    9.54    8.60
  10   2  18   12.24   17.00
  10   2  18    0.06   22.74
  13   5  -4   11.01   19.42
 -13  -5   4    5.17   31.03
  13   3  12   -0.32    4.10
 -13   3 -12    2.85    8.69
   9   6   1    2.67   13.32
  -9  -6  -1   11.07   23.48
  -9   6  -1    0.56   12.04
  14   0 -20    0.00    6.53
 -14   0  20    8.51   13.09
  10   1  19    1.74    6.29
  10  -1  19   -0.09    4.50
  10  -1  19   -1.24    3.60
  10   1  19   -0.13    8.50
 -18   0  12   57.44   17.17
  18   0 -12    0.06   23.76
  -6  -2  24   11.51   13.54
  -6   2  24    0.81   13.91
   6   2 -24    9.53   17.11
  -6  -2  24   18.31   25.15
  10   5   9    0.52    8.09
 -10   5  -9    0.07    9.28
  18   2   0   11.23   12.53
 -18   2   0   15.32   33.81
 -18  -2   0    0.16   17.17
   9   1  20    0.05    8.55
   9  -1  20    0.62    8.65
   9   1  20   19.47   11.19
   9  -1  20    2.00    7.80
   3  -6  11   -0.45    4.49
   3   6  11    1.70    7.16
   3   6  11    2.93    8.44
   9   6  -5   -1.22    6.15
  -9  -6   5    0.68    6.24
  -9  -6   5    0.28    5.63
  -9   6   5   -0.27    6.78
  -8  -6   8    4.07   14.72
   8   6  -8   -1.23    7.73
  -8   6   8    5.24    7.61
  -8   6   8    0.17    5.02
  -8   6   8   -0.59    5.43
  -8  -6   8    0.11    9.18
 -17   0  15  101.39   28.61
   8  -2  20    4.69    8.59
   8  -2  20   44.17   13.50
   8   2  20   28.23   21.35
   8   2  20    0.20   28.90
   3   1  24   -0.77   19.76
   3  -1  24   33.80   14.82
   3  -1  24    0.29    9.58
  -4  -6  12   -1.09   30.65
  -4  -6  12   41.30   33.45
  -4   6  12   29.88   24.15
  -4   6  12   15.51   26.48
   4   6 -12   22.67   19.94
 -15   1 -12   19.30   19.98
  15   1  12   -4.14    7.59
 -15  -1 -12   10.70   12.73
  15   1  12    5.36   10.71
 -14   4  -6    0.37   11.29
  14   4   6    1.20    8.90
   1   0  25   15.30   11.93
   1   0  25    0.19   24.69
 -11   1 -18   -0.96   18.37
  11   1  18   16.02   11.50
  11   1  18   13.98   14.92
  11   1  18   -0.41   13.77
 -18  -2   8   23.40   23.08
  18   2  -8   12.49   10.60
  -2   3  23   -4.77   31.32
  -2  -3  23   32.87   17.24
  -2  -3  23   -1.19   14.95
   2   3 -23   25.51   18.00
  11   2  17   -4.44   14.56
 -11   2 -17   56.69   19.94
  11   2  17   -0.07   12.41
 -16  -3  -5   -0.79    7.30
  16   3   5    1.54    4.95
 -16  -3  -5   -0.02    7.89
 -16   3  -5   24.63   20.56
  15   3   8    7.44   12.92
 -15   3  -8    2.22   17.74
   0   1  25    7.16   16.93
   0   1  25    0.17   27.86
   0  -1  25   25.57   12.85
   0   1 -25   11.74   19.91
   0  -1  25   -0.07   23.83
  13   5   0    0.72    9.90
 -13  -5   0    2.02   16.47
 -17   3   0   -0.18   12.68
 -17  -3   0    0.00    4.56
  17   3   0   -0.25    5.23
 -15   2  17   -0.46    4.96
  15   2 -17    7.95    9.59
  15  -2 -17   -0.66    5.26
 -15  -2  17    4.27    8.16
   2   4  20   34.15   21.35
   2  -4  20   83.02   23.61
   2   4  20   22.45   26.63
  -2   4 -20   17.66   19.25
   2  -4  20   19.08   25.42
   7   0 -25   37.64   20.39
  -7   0  25   22.66   23.49
   8  -4  16   20.55   13.31
   8   4  16   11.30   28.50
   8   4  16   -0.10   11.33
 -14  -4  12   43.13   33.87
 -14   4  12    3.05   12.70
  14   4 -12   43.74   21.89
 -11   0  23   23.67   24.01
  11   0 -23    0.01   19.19
   8   1  21    0.07   17.86
   8   1  21   23.88   13.96
   8  -1  21    5.14   11.45
   8  -1  21    2.43    7.17
  19   0  -1    6.62   11.07
 -19   0   1   37.34   21.81
 -19   0   7    7.51    8.80
  19   0  -7   -0.84    8.05
  -4   3  23   -0.43   12.26
  -4  -3  23    3.21   11.71
  -4  -3  23    0.31   18.61
   4   3 -23    8.49    8.08
  -6  -1  25   25.94   21.68
  -6  -1  25   31.71   21.22
   6  -1 -25   18.29   29.35
   6   1 -25   28.23   16.85
  -6   1  25   -0.17   37.20
  -9  -2  23    7.45   11.47
   9   2 -23    3.71    8.10
   9  -2 -23    0.00    8.56
  -9   2  23    0.47   16.50
   7   6   7   -0.07    3.75
 -11  -5  12   27.41   29.20
 -11  -5  12   -0.46   15.42
  11   5 -12   21.14   11.11
 -11   5  12    2.33   11.49
   7   4  17    1.17   15.32
   7   4  17    4.62   13.04
 -13  -5   6   -2.19   14.99
  13   5  -6    9.07   14.48
   9   4  15   29.48   19.26
   9   4  15   -1.89    7.70
  11   4 -17   32.65   22.09
 -11  -4  17   36.00   35.28
 -11   4  17    0.84   19.23
  15   4  -9   12.64   22.51
 -15  -4   9   18.11   19.51
  10   4 -18    4.29   14.46
 -10  -4  18    8.89   13.84
 -10   4  18    3.06   14.64
  -9  -1  24   15.99   16.08
   9   1 -24   16.21   21.32
   9  -1 -24    0.01   22.43
  -9   1  24    6.99   26.54
 -12   5  -5   -0.20   12.03
  12   5   5   -0.77   10.41
 -12  -5  -5    4.09   10.80
 -12   3  19   -0.95   13.92
 -12  -3  19   81.33   21.98
  19   1  -4    0.27    5.59
 -19   1   4    1.25    9.19
 -15   0  19    0.77    5.88
  15   0 -19   -0.02    7.93
   7   2  21   11.19    8.39
   7   2  21   -0.01   11.03
   7  -2  21   21.15    8.94
   7  -2  21   -0.02    4.30
   2  -6  12   -0.22    5.06
   2   6  12    0.15    4.56
   2   6  12    2.79   10.52
   4   0  24  112.73   27.28
 -11  -3  20    2.39   17.87
  17   3  -8    9.63    9.63
   3   4 -21    7.25   13.25
  -3  -4  21   -0.16   18.04
  -3  -4  21   10.65   13.82
  -3   4  21    0.29   22.34
  15   4   3    2.19   11.10
 -15   4  -3    4.04   27.80
 -12   1 -17   -0.08   10.92
  12   1  17    1.97    7.65
  -2   5 -17    0.64    3.50
   2   5  17    3.58   15.80
   2  -5  17   -3.60    4.07
   2  -5  17   -0.02   13.81
  -6   5  17   18.37   20.12
  -6  -5  17    0.26   15.07
  -6  -5  17   21.29   24.92

_computing_structure_solution     'SHELXT 2014/4 (Sheldrick, 2014)'
;
_shelx_hkl_checksum              72895
loop_
_space_group_symop_id
_space_group_symop_operation_xyz
1 +X,+Y,+Z
2 -X,+Y,-Z
3 1/2+X,1/2+Y,1/2+Z
4 1/2-X,1/2+Y,1/2-Z
loop_
_atom_site_label
_atom_site_type_symbol
_atom_site_fract_x
_atom_site_fract_y
_atom_site_fract_z
_atom_site_U_iso_or_equiv
_atom_site_adp_type
_atom_site_occupancy
_atom_site_site_symmetry_order
_atom_site_calc_flag
_atom_site_refinement_flags_posn
_atom_site_refinement_flags_adp
S1 S 0.32832(13) 0.1494(4) 0.44066(9) 0.0525(6) Uani 1 1 d . .
O2 O 0.4437(3) 0.2294(10) 0.7039(3) 0.0473(13) Uani 1 1 d . .
O3 O 0.2861(3) 0.8452(11) 0.6548(3) 0.0500(14) Uani 1 1 d . .
O4 O 0.3043(3) 0.8937(10) 0.7674(2) 0.0472(13) Uani 1 1 d . .
O5 O 0.3159(4) 0.5126(11) 0.3504(3) 0.0597(16) Uani 1 1 d . .
N6 N 0.3919(4) 0.6071(12) 0.7279(3) 0.0397(14) Uani 1 1 d . .
C7 C 0.4138(5) 0.4273(15) 0.6816(4) 0.0433(17) Uani 1 1 d . .
C8 C 0.4066(4) 0.5606(14) 0.8016(3) 0.0421(18) Uani 1 1 d . .
H8 H 0.3686 0.4140 0.8113 0.051 Uiso 1 1 calc R U
C9 C 0.3231(5) 0.7889(15) 0.7100(4) 0.0440(18) Uani 1 1 d . .
C10 C 0.4028(5) 0.5020(15) 0.6096(4) 0.0438(17) Uani 1 1 d . .
C11 C 0.5052(4) 0.5128(17) 0.8331(4) 0.0454(18) Uani 1 1 d . .
H11 H 0.5226 0.3441 0.8175 0.054 Uiso 1 1 calc R U
C12 C 0.3257(5) 0.2873(17) 0.3602(4) 0.049(2) Uani 1 1 d . .
C13 C 0.3649(5) 0.7996(16) 0.8265(4) 0.050(2) Uani 1 1 d . .
H13A H 0.3304 0.7618 0.8642 0.060 Uiso 1 1 calc R U
H13B H 0.4132 0.9235 0.8427 0.060 Uiso 1 1 calc R U
C14 C 0.3455(5) 0.3610(16) 0.5660(4) 0.0478(19) Uani 1 1 d . .
H14 H 0.3238 0.2099 0.5831 0.057 Uiso 1 1 calc R U
C15 C 0.3347(5) 0.1100(17) 0.3044(3) 0.0499(19) Uani 1 1 d . .
H15A H 0.3418 -0.0604 0.3229 0.060 Uiso 1 1 calc R U
H15B H 0.2797 0.1183 0.2697 0.060 Uiso 1 1 calc R U
H15C H 0.3884 0.1543 0.2837 0.060 Uiso 1 1 calc R U
C16 C 0.5117(6) 0.5032(19) 0.9107(4) 0.060(2) Uani 1 1 d . .
H16A H 0.5753 0.4724 0.9315 0.072 Uiso 1 1 calc R U
H16B H 0.4912 0.6631 0.9273 0.072 Uiso 1 1 calc R U
H16C H 0.4728 0.3679 0.9233 0.072 Uiso 1 1 calc R U
C17 C 0.4561(4) 0.7225(15) 0.5923(4) 0.0441(18) Uani 1 1 d . .
H17A H 0.4923 0.7893 0.6340 0.053 Uiso 1 1 calc R U
H17B H 0.4971 0.6716 0.5604 0.053 Uiso 1 1 calc R U
H17C H 0.4141 0.8518 0.5710 0.053 Uiso 1 1 calc R U
C18 C 0.3127(5) 0.4248(17) 0.4919(4) 0.052(2) Uani 1 1 d . .
H18 H 0.3506 0.5651 0.4781 0.062 Uiso 1 1 calc R U
C19 C 0.2139(5) 0.506(2) 0.4824(4) 0.063(2) Uani 1 1 d . .
H19A H 0.1932 0.5466 0.4343 0.076 Uiso 1 1 calc R U
H19B H 0.1764 0.3693 0.4962 0.076 Uiso 1 1 calc R U
H19C H 0.2079 0.6535 0.5107 0.076 Uiso 1 1 calc R U
C20 C 0.5721(5) 0.7029(17) 0.8118(4) 0.058(2) Uani 1 1 d . .
H20A H 0.6343 0.6617 0.8338 0.070 Uiso 1 1 calc R U
H20B H 0.5690 0.6984 0.7620 0.070 Uiso 1 1 calc R U
H20C H 0.5560 0.8709 0.8258 0.070 Uiso 1 1 calc R U
loop_
_atom_site_aniso_label
_atom_site_aniso_U_11
_atom_site_aniso_U_22
_atom_site_aniso_U_33
_atom_site_aniso_U_23
_atom_site_aniso_U_13
_atom_site_aniso_U_12
S1 0.0675(13) 0.0497(11) 0.0438(11) 0.0008(10) 0.0201(9) -0.0001(11)
O2 0.048(3) 0.047(3) 0.050(3) 0.006(3) 0.018(2) 0.010(2)
O3 0.049(3) 0.056(3) 0.050(3) 0.001(3) 0.025(2) 0.005(3)
O4 0.052(3) 0.049(3) 0.044(3) -0.005(3) 0.022(2) -0.002(3)
O5 0.083(4) 0.046(4) 0.053(3) 0.004(3) 0.019(3) -0.001(3)
N6 0.043(3) 0.044(4) 0.037(3) -0.003(3) 0.020(2) 0.007(3)
C7 0.038(3) 0.047(4) 0.049(4) -0.002(4) 0.019(3) 0.001(4)
C8 0.042(4) 0.047(4) 0.041(4) 0.001(4) 0.017(3) 0.001(3)
C9 0.047(4) 0.039(4) 0.053(5) 0.001(4) 0.031(3) 0.004(3)
C10 0.042(4) 0.051(4) 0.042(4) -0.004(4) 0.018(3) -0.001(4)
C11 0.039(3) 0.051(4) 0.049(4) -0.002(4) 0.018(3) -0.003(4)
C12 0.043(4) 0.062(6) 0.044(4) -0.006(4) 0.015(3) -0.008(4)
C13 0.050(4) 0.059(5) 0.045(4) -0.004(4) 0.021(3) 0.007(4)
C14 0.053(4) 0.047(5) 0.047(4) -0.004(4) 0.022(3) 0.001(4)
C15 0.053(4) 0.053(5) 0.047(4) -0.002(4) 0.020(3) -0.003(4)
C16 0.064(5) 0.069(6) 0.051(5) 0.005(5) 0.021(4) 0.001(5)
C17 0.042(4) 0.047(4) 0.047(4) -0.004(4) 0.019(3) -0.006(3)
C18 0.057(4) 0.057(5) 0.043(4) -0.001(4) 0.018(3) -0.004(4)
C19 0.053(4) 0.081(7) 0.056(5) -0.010(5) 0.012(4) 0.017(5)
C20 0.044(4) 0.067(6) 0.066(5) 0.002(5) 0.017(4) -0.008(4)
loop_
_atom_type_symbol
_atom_type_description
_atom_type_scat_dispersion_real
_atom_type_scat_dispersion_imag
_atom_type_scat_source
C C 0.0033 0.0016
;
International Tables for Crystallography
(Vol. C, Tables 4.2.6.8 and 6.1.1.4)
;
H H 0.0000 0.0000
;
International Tables for Crystallography
(Vol. C, Table 6.1.1.4)
;
N N 0.0061 0.0033
;
International Tables for Crystallography
(Vol. C, Tables 4.2.6.8 and 6.1.1.4)
;
O O 0.0106 0.0060
;
International Tables for Crystallography
(Vol. C, Tables 4.2.6.8 and 6.1.1.4)
;
S S 0.1246 0.1234
;
International Tables for Crystallography
(Vol. C, Tables 4.2.6.8 and 6.1.1.4)
;
loop_
_geom_angle_atom_site_label_1
_geom_angle_atom_site_label_2
_geom_angle_atom_site_label_3
_geom_angle
C12 S1 C18 100.4(4)
C9 O4 C13 111.0(6)
C7 N6 C9 122.6(6)
C7 N6 C8 121.6(6)
C9 N6 C8 110.8(5)
O2 C7 N6 118.1(7)
O2 C7 C10 125.1(7)
N6 C7 C10 116.7(7)
N6 C8 C11 114.9(5)
N6 C8 C13 100.1(6)
C11 C8 C13 114.7(6)
N6 C8 H8 108.9
C11 C8 H8 108.9
C13 C8 H8 108.9
O3 C9 O4 123.6(7)
O3 C9 N6 128.2(7)
O4 C9 N6 108.3(7)
C14 C10 C7 115.8(7)
C14 C10 C17 126.9(7)
C7 C10 C17 117.3(6)
C8 C11 C20 113.6(7)
C8 C11 C16 108.9(6)
C20 C11 C16 111.1(7)
C8 C11 H11 107.7
C20 C11 H11 107.7
C16 C11 H11 107.7
O5 C12 C15 122.2(8)
O5 C12 S1 122.9(7)
C15 C12 S1 114.8(6)
O4 C13 C8 105.0(6)
O4 C13 H13A 110.7
C8 C13 H13A 110.7
O4 C13 H13B 110.7
C8 C13 H13B 110.7
H13A C13 H13B 108.8
C10 C14 C18 124.9(8)
C10 C14 H14 117.5
C18 C14 H14 117.5
C12 C15 H15A 109.5
C12 C15 H15B 109.5
H15A C15 H15B 109.5
C12 C15 H15C 109.5
H15A C15 H15C 109.5
H15B C15 H15C 109.5
C11 C16 H16A 109.5
C11 C16 H16B 109.5
H16A C16 H16B 109.5
C11 C16 H16C 109.5
H16A C16 H16C 109.5
H16B C16 H16C 109.5
C10 C17 H17A 109.5
C10 C17 H17B 109.5
H17A C17 H17B 109.5
C10 C17 H17C 109.5
H17A C17 H17C 109.5
H17B C17 H17C 109.5
C19 C18 C14 110.0(6)
C19 C18 S1 111.5(6)
C14 C18 S1 108.1(6)
C19 C18 H18 109.1
C14 C18 H18 109.1
S1 C18 H18 109.1
C18 C19 H19A 109.5
C18 C19 H19B 109.5
H19A C19 H19B 109.5
C18 C19 H19C 109.5
H19A C19 H19C 109.5
H19B C19 H19C 109.5
C11 C20 H20A 109.5
C11 C20 H20B 109.5
H20A C20 H20B 109.5
C11 C20 H20C 109.5
H20A C20 H20C 109.5
H20B C20 H20C 109.5
loop_
_geom_bond_atom_site_label_1
_geom_bond_atom_site_label_2
_geom_bond_distance
S1 C12 1.752(8)
S1 C18 1.823(9)
O2 C7 1.203(9)
O3 C9 1.183(9)
O4 C9 1.336(8)
O4 C13 1.449(9)
O5 C12 1.224(10)
N6 C7 1.402(9)
N6 C9 1.412(9)
N6 C8 1.465(8)
C7 C10 1.466(10)
C8 C11 1.517(9)
C8 C13 1.533(10)
C8 H8 1.0000
C10 C14 1.343(11)
C10 C17 1.488(10)
C11 C20 1.525(10)
C11 C16 1.528(9)
C11 H11 1.0000
C12 C15 1.478(10)
C13 H13A 0.9900
C13 H13B 0.9900
C14 C18 1.512(10)
C14 H14 0.9500
C15 H15A 0.9800
C15 H15B 0.9800
C15 H15C 0.9800
C16 H16A 0.9800
C16 H16B 0.9800
C16 H16C 0.9800
C17 H17A 0.9800
C17 H17B 0.9800
C17 H17C 0.9800
C18 C19 1.509(11)
C18 H18 1.0000
C19 H19A 0.9800
C19 H19B 0.9800
C19 H19C 0.9800
C20 H20A 0.9800
C20 H20B 0.9800
C20 H20C 0.9800
loop_
_geom_torsion_atom_site_label_1
_geom_torsion_atom_site_label_2
_geom_torsion_atom_site_label_3
_geom_torsion_atom_site_label_4
_geom_torsion
C9 N6 C7 O2 -151.4(7)
C8 N6 C7 O2 1.4(10)
C9 N6 C7 C10 31.8(9)
C8 N6 C7 C10 -175.4(6)
C7 N6 C8 C11 61.1(9)
C9 N6 C8 C11 -143.3(6)
C7 N6 C8 C13 -175.5(6)
C9 N6 C8 C13 -19.8(7)
C13 O4 C9 O3 -175.9(7)
C13 O4 C9 N6 4.3(8)
C7 N6 C9 O3 -13.5(12)
C8 N6 C9 O3 -168.9(8)
C7 N6 C9 O4 166.2(6)
C8 N6 C9 O4 10.8(8)
O2 C7 C10 C14 61.8(10)
N6 C7 C10 C14 -121.6(8)
O2 C7 C10 C17 -117.8(9)
N6 C7 C10 C17 58.8(8)
N6 C8 C11 C20 47.9(9)
C13 C8 C11 C20 -67.3(8)
N6 C8 C11 C16 172.4(7)
C13 C8 C11 C16 57.1(9)
C18 S1 C12 O5 0.4(8)
C18 S1 C12 C15 -178.6(5)
C9 O4 C13 C8 -16.8(8)
N6 C8 C13 O4 21.2(7)
C11 C8 C13 O4 144.7(6)
C7 C10 C14 C18 170.3(7)
C17 C10 C14 C18 -10.1(12)
C10 C14 C18 C19 -107.1(9)
C10 C14 C18 S1 130.9(7)
C12 S1 C18 C19 78.5(7)
C12 S1 C18 C14 -160.5(5)
