#------------------------------------------------------------------------------
#$Date: 2017-05-23 03:03:03 +0300 (Tue, 23 May 2017) $
#$Revision: 196828 $
#$URL: file:///home/coder/svn-repositories/cod/cif/1/54/60/1546085.cif $
#------------------------------------------------------------------------------
#
# This file is available in the Crystallography Open Database (COD),
# http://www.crystallography.net/
#
# All data on this site have been placed in the public domain by the
# contributors.
#
data_1546085
loop_
_publ_author_name
'Zheng, Nan'
'Zhang, Lijie'
'Gong, Jianxian'
'Yang, Zhen'
_publ_section_title
;
 Formal Total Synthesis of (+-)-Lycojaponicumin C
;
_journal_name_full               'Organic Letters'
_journal_paper_doi               10.1021/acs.orglett.7b01154
_journal_year                    2017
_chemical_formula_moiety         'C21 H25 N O4 S'
_chemical_formula_sum            'C21 H25 N O4 S'
_chemical_formula_weight         387.48
_space_group_crystal_system      monoclinic
_space_group_IT_number           14
_space_group_name_Hall           '-P 2yn'
_space_group_name_H-M_alt        'P 1 21/n 1'
_symmetry_space_group_name_Hall  '-P 2yn'
_symmetry_space_group_name_H-M   'P 1 21/n 1'
_atom_sites_solution_hydrogens   geom
_audit_creation_method           SHELXL-2016/6
_cell_angle_alpha                90
_cell_angle_beta                 91.725(7)
_cell_angle_gamma                90
_cell_formula_units_Z            4
_cell_length_a                   7.03380(10)
_cell_length_b                   11.9216(2)
_cell_length_c                   24.1813(17)
_cell_measurement_reflns_used    24715
_cell_measurement_temperature    293(2)
_cell_measurement_theta_max      68.0
_cell_measurement_theta_min      6.6
_cell_volume                     2026.78(15)
_computing_cell_refinement       'SHELXL-2016/6 (Sheldrick, 2016)'
_computing_data_collection       'CrystalClear-SM 2.0 r4 (Rigaku, 2009)'
_computing_data_reduction        'CrystalClear-SM 2.0 r4 (Rigaku, 2009)'
_computing_molecular_graphics    'CrystalStructure 4.0 (Rigaku, 2009)'
_computing_publication_material  'CrystalStructure 4.0 (Rigaku, 2009)'
_computing_structure_refinement  'SHELXL-2016/6 (Sheldrick, 2016)'
_computing_structure_solution    'SHELXL-2016/6 (Sheldrick, 2016)'
_diffrn_ambient_temperature      293(2)
_diffrn_measured_fraction_theta_full 0.991
_diffrn_measured_fraction_theta_max 0.988
_diffrn_measurement_device_type  'Rigaku Saturn944+ CCD'
_diffrn_measurement_method       'profile data from \w-scans'
_diffrn_radiation_type           CuK\a
_diffrn_radiation_wavelength     1.54178
_diffrn_reflns_av_R_equivalents  0.0517
_diffrn_reflns_av_unetI/netI     0.0330
_diffrn_reflns_Laue_measured_fraction_full 0.991
_diffrn_reflns_Laue_measured_fraction_max 0.988
_diffrn_reflns_limit_h_max       8
_diffrn_reflns_limit_h_min       -8
_diffrn_reflns_limit_k_max       14
_diffrn_reflns_limit_k_min       -13
_diffrn_reflns_limit_l_max       29
_diffrn_reflns_limit_l_min       -28
_diffrn_reflns_number            27427
_diffrn_reflns_point_group_measured_fraction_full 0.991
_diffrn_reflns_point_group_measured_fraction_max 0.988
_diffrn_reflns_theta_full        67.679
_diffrn_reflns_theta_max         67.950
_diffrn_reflns_theta_min         6.610
_exptl_absorpt_coefficient_mu    1.631
_exptl_absorpt_correction_T_max  1.000
_exptl_absorpt_correction_T_min  0.707
_exptl_absorpt_correction_type   multi-scan
_exptl_absorpt_process_details   'Jacobson, R. (1998) Private communication'
_exptl_crystal_colour            Colorless
_exptl_crystal_density_diffrn    1.270
_exptl_crystal_description       Prism
_exptl_crystal_F_000             824
_exptl_crystal_size_max          0.200
_exptl_crystal_size_mid          0.200
_exptl_crystal_size_min          0.200
_refine_diff_density_max         0.774
_refine_diff_density_min         -0.317
_refine_diff_density_rms         0.077
_refine_ls_extinction_coef       0.0313(18)
_refine_ls_extinction_expression Fc^*^=kFc[1+0.001xFc^2^\l^3^/sin(2\q)]^-1/4^
_refine_ls_extinction_method     'SHELXL-2016/6 (Sheldrick 2016)'
_refine_ls_goodness_of_fit_ref   1.078
_refine_ls_hydrogen_treatment    constr
_refine_ls_matrix_type           full
_refine_ls_number_parameters     246
_refine_ls_number_reflns         3654
_refine_ls_number_restraints     0
_refine_ls_restrained_S_all      1.078
_refine_ls_R_factor_all          0.0694
_refine_ls_R_factor_gt           0.0637
_refine_ls_shift/su_max          0.001
_refine_ls_shift/su_mean         0.000
_refine_ls_structure_factor_coef Fsqd
_refine_ls_weighting_details
'w=1/[\s^2^(Fo^2^)+(0.1041P)^2^+0.5333P] where P=(Fo^2^+2Fc^2^)/3'
_refine_ls_weighting_scheme      calc
_refine_ls_wR_factor_gt          0.1706
_refine_ls_wR_factor_ref         0.1799
_reflns_Friedel_coverage         0.000
_reflns_number_gt                3264
_reflns_number_total             3654
_reflns_threshold_expression     'I > 2\s(I)'
_cod_data_source_file            ol7b01154_si_002.cif
_cod_data_source_block           shelx
_cod_depositor_comments
;
The following automatic conversions were performed:

'_exptl_absorpt_correction_type' value 'Multi-scan' changed to
'multi-scan' according to
/home/data/users/saulius/crontab/automatic-downloads/rss-feeds/ACS/lib/dictionaries/cif_core.dic
dictionary named 'cif_core.dic' version 2.4.2 from 2011-04-26.

Automatic conversion script
Id: cif_fix_values 4973 2017-02-22 13:04:09Z antanas 
;
_cod_database_code               1546085
_shelx_shelxl_version_number     2016/6
_shelx_space_group_comment
;
The symmetry employed for this shelxl refinement is uniquely defined
by the following loop, which should always be used as a source of
symmetry information in preference to the above space-group names.
They are only intended as comments.
;
_shelx_estimated_absorpt_t_min   0.736
_shelx_estimated_absorpt_t_max   0.736
_shelx_res_file
;
TITL a in P2(1)/n
    shelx.res
    created by SHELXL-2016/6 at 15:59:15 on 07-Mar-2017
CELL 1.54178 7.0338 11.9216 24.1813 90.000 91.725 90.000
ZERR 4.00 0.0001 0.0002 0.0017 0.000 0.007 0.000
LATT 1
SYMM -x+1/2, y+1/2, -z+1/2
SFAC C H N O S
UNIT 84 100 4 16 4
TEMP 20
SIZE 0.200 0.200 0.200
omit       -7   2   5
omit       -7   0   1
omit       -7   2   7
omit       -8   0   4
omit       -6   8  10
omit       -8   0   8
omit       -5  10   2
omit       -8   1   1
omit       -1   1   1
omit       -6   8  12
omit       -6   9   7
omit       -6   8   8
omit       -8   0   6
omit        0   1   5
omit       -2   2   3

ACTA
L.S. 10
FMAP 2
PLAN 5 0 0.00
BOND $H
WGHT    0.104100    0.533300
EXTI    0.031321
FVAR       0.68493
S1    5    0.251262   -0.057604    0.245664    11.00000    0.06664    0.08029 =
         0.05265    0.00514    0.00549    0.02180
O1    4    0.403571    0.007467    0.269742    11.00000    0.05033    0.15544 =
         0.06330   -0.00154   -0.00512    0.00598
O2    4   -0.456175    0.189791    0.413555    11.00000    0.06184    0.13571 =
         0.11054    0.00282    0.01941    0.02127
O3    4    0.144247   -0.080625    0.430216    11.00000    0.10478    0.09260 =
         0.06787    0.00831   -0.02037    0.03158
O4    4    0.281494   -0.172534    0.231534    11.00000    0.13620    0.08487 =
         0.08027    0.01461    0.02667    0.05153
N1    3    0.077919   -0.056186    0.289139    11.00000    0.06130    0.06303 =
         0.04670    0.00349    0.00102    0.00553
C1    1   -0.044232    0.187617    0.042050    11.00000    0.15058    0.15760 =
         0.07513    0.04444    0.00420    0.03507
AFIX 137
H1A   2   -0.179904    0.193347    0.044343    11.00000   -1.50000
H1B   2   -0.013345    0.148555    0.008786    11.00000   -1.50000
H1C   2    0.010239    0.261431    0.041536    11.00000   -1.50000
AFIX   0
C2    1    0.034831    0.124007    0.091525    11.00000    0.07903    0.09450 =
         0.05502    0.01583    0.00986    0.00723
C3    1   -0.009873    0.012121    0.100480    11.00000    0.09093    0.11032 =
         0.05552    0.00193   -0.01390   -0.02519
AFIX  43
H3    2   -0.086542   -0.025324    0.074482    11.00000   -1.20000
AFIX   0
C4    1    0.056077   -0.045171    0.146811    11.00000    0.09669    0.06579 =
         0.06068   -0.00127   -0.00085   -0.02505
AFIX  43
H4    2    0.023319   -0.119838    0.152298    11.00000   -1.20000
AFIX   0
C5    1    0.172116    0.010951    0.184959    11.00000    0.06063    0.05820 =
         0.04510   -0.00370    0.00609   -0.00059
C6    1    0.030809    0.050490    0.315339    11.00000    0.05012    0.05852 =
         0.04462    0.00441    0.00181    0.00167
AFIX  13
H6    2    0.149734    0.091307    0.322857    11.00000   -1.20000
AFIX   0
C7    1   -0.067286    0.031412    0.371492    11.00000    0.04760    0.06616 =
         0.04399    0.00766    0.00189    0.00374
C8    1   -0.142238    0.150988    0.383213    11.00000    0.04915    0.07187 =
         0.05151    0.00411    0.00469    0.00585
C9    1    0.032114    0.210482    0.413367    11.00000    0.05870    0.07606 =
         0.06337   -0.00407    0.01135   -0.00389
AFIX  13
H9    2    0.120819    0.233066    0.384932    11.00000   -1.20000
AFIX   0
C10   1   -0.020012    0.313821    0.444944    11.00000    0.07856    0.08781 =
         0.08747   -0.01622    0.01280   -0.00720
AFIX  43
H10   2   -0.075571    0.303363    0.478977    11.00000   -1.20000
AFIX   0
C11   1    0.005104    0.414545    0.429260    11.00000    0.15585    0.12645 =
         0.16278   -0.04016    0.03241   -0.00566
AFIX  93
H11A  2    0.060199    0.428877    0.395499    11.00000   -1.20000
H11B  2   -0.031645    0.473786    0.451564    11.00000   -1.20000
AFIX   0
C12   1   -0.106483    0.129399    0.283607    11.00000    0.07057    0.06424 =
         0.04835    0.01157    0.00035    0.00682
AFIX  23
H12A  2   -0.037902    0.175536    0.257861    11.00000   -1.20000
H12B  2   -0.202269    0.086625    0.263049    11.00000   -1.20000
AFIX   0
C13   1   -0.197945    0.201715    0.326861    11.00000    0.07563    0.07788 =
         0.06073    0.00871    0.00307    0.02159
AFIX  23
H13A  2   -0.335136    0.201796    0.321407    11.00000   -1.20000
H13B  2   -0.152543    0.278345    0.324509    11.00000   -1.20000
AFIX   0
C14   1   -0.303502    0.149323    0.422718    11.00000    0.05450    0.08785 =
         0.07078   -0.00159    0.01219    0.00436
AFIX  43
H14   2   -0.282542    0.114217    0.456701    11.00000   -1.20000
AFIX   0
C15   1    0.126388    0.117655    0.447233    11.00000    0.05776    0.09952 =
         0.05897   -0.00323   -0.00414   -0.00102
AFIX  23
H15A  2    0.262897    0.129080    0.449890    11.00000   -1.20000
H15B  2    0.077413    0.116333    0.484299    11.00000   -1.20000
AFIX   0
C16   1    0.080723    0.009777    0.417687    11.00000    0.05398    0.08569 =
         0.04551    0.00660    0.00232    0.00981
C17   1   -0.222804   -0.058117    0.366702    11.00000    0.05860    0.07560 =
         0.06065    0.01025    0.00477   -0.00760
AFIX  23
H17A  2   -0.261621   -0.078411    0.403533    11.00000   -1.20000
H17B  2   -0.332587   -0.026732    0.347010    11.00000   -1.20000
AFIX   0
C18   1   -0.159207   -0.163986    0.336646    11.00000    0.08380    0.07010 =
         0.07611    0.00946    0.00261   -0.01502
AFIX  23
H18A  2   -0.062383   -0.202240    0.358963    11.00000   -1.20000
H18B  2   -0.266552   -0.214398    0.331541    11.00000   -1.20000
AFIX   0
C19   1   -0.080285   -0.134697    0.280823    11.00000    0.08039    0.06441 =
         0.06299    0.00098   -0.00638   -0.00242
AFIX  23
H19A  2   -0.036370   -0.202119    0.262735    11.00000   -1.20000
H19B  2   -0.178883   -0.100769    0.257431    11.00000   -1.20000
AFIX   0
C20   1    0.219600    0.121147    0.175947    11.00000    0.07714    0.06444 =
         0.06048   -0.00675    0.00572   -0.01838
AFIX  43
H20   2    0.298133    0.158852    0.201378    11.00000   -1.20000
AFIX   0
C21   1    0.151421    0.175460    0.129578    11.00000    0.10169    0.05980 =
         0.07113    0.01190    0.01804   -0.00547
AFIX  43
H21   2    0.185870    0.249802    0.123924    11.00000   -1.20000
AFIX   0
HKLF 4 1 1 0 0 0 1 0 0 0 1




REM  a in P2(1)/n
REM R1 =  0.0637 for    3264 Fo > 4sig(Fo)  and  0.0694 for all    3654 data
REM    246 parameters refined using      0 restraints

END

WGHT      0.1005      0.5475

REM Highest difference peak  0.774,  deepest hole -0.317,  1-sigma level  0.077
Q1    1  -0.0513  0.3382  0.4940  11.00000  0.05    0.77
Q2    1   0.0912  0.1842  0.0070  11.00000  0.05    0.24
Q3    1  -0.1168  0.1227  0.0096  11.00000  0.05    0.21
Q4    1  -0.3912  0.1447  0.3148  11.00000  0.05    0.20
Q5    1  -0.0488  0.1420  0.2475  11.00000  0.05    0.20
;
_shelx_res_checksum              84639
_shelx_hkl_file
;
   0   0   4  372.58   10.78
   0   0  -4  381.55    7.44
   0   0  -4  367.10   11.16
   0   0   5    0.75    0.20
   0   0  -5    0.10    0.09
   0   0  -5    0.11    0.15
   0   0   6 3314.09  108.18
   0   0  -6 3072.86   73.88
   0   0  -6 2876.10  106.99
   0   0   7    1.96    0.31
   0   0  -7    0.06    0.25
   0   0  -7    0.37    0.14
   0   0   8  127.34    6.19
   0   0  -8  160.64    4.93
   0   0  -8  139.95    6.83
   0   0   9   -0.16    0.24
   0   0  -9    0.72    0.16
   0   0  -9    0.23    0.37
   0   0  10  555.06   25.80
   0   0 -10  580.12   27.72
   0   0 -10  548.34   17.14
   0   0  11    0.29    0.29
   0   0 -11    0.18    0.15
   0   0 -11   -0.10    0.42
   0   0  12 1021.24   54.31
   0   0 -12 1070.23   56.70
   0   0 -12  966.59   34.08
   0   0  13    1.36    0.58
   0   0  13    0.22    0.48
   0   0  13    0.03    0.49
   0   0 -13   -0.11    0.50
   0   0 -13   -0.01    0.24
   0   0 -13    1.43    0.40
   0   0  14   14.72    1.83
   0   0  14   12.80    1.79
   0   0  14    8.54    1.59
   0   0  14   13.86    1.98
   0   0 -14   12.05    1.83
   0   0 -14   14.62    2.06
   0   0  15    0.98    0.51
   0   0  15    0.26    0.52
   0   0 -15   -0.11    0.59
   0   0 -15    0.01    0.61
   0   0 -15    1.64    0.65
   0   0  16  120.71    9.63
   0   0  16  110.84    8.41
   0   0  16  112.01    8.73
   0   0  16  119.76    9.56
   0   0 -16  110.18    8.29
   0   0 -16  110.90    8.92
   0   0  17    1.91    0.91
   0   0  17    1.49    0.54
   0   0  17    0.03    0.62
   0   0  17   -0.02    0.79
   0   0 -17    0.14    0.64
   0   0 -17    0.08    0.76
   0   0 -17   -0.11    0.77
   0   0  18   63.20    5.70
   0   0  18   51.18    5.39
   0   0  18   60.23    6.45
   0   0  18   56.29    6.88
   0   0 -18   58.01    6.32
   0   0 -18   55.48    5.92
   0   0  19   -0.01    0.53
   0   0  19    0.06    0.68
   0   0  19   -0.01    0.44
   0   0  19   -0.34    0.58
   0   0 -19    0.26    0.52
   0   0 -19    0.10    0.54
   0   0  20   68.53    7.73
   0   0  20   51.50    5.98
   0   0  20   65.15    7.48
   0   0  20   60.97    6.93
   0   0 -20   60.15    6.81
   0   0 -20   58.02    6.67
   0   0  21    2.78    1.26
   0   0  21    3.35    1.34
   0   0  21   -0.01    1.00
   0   0  21    0.85    1.25
   0   0 -21   -0.01    1.18
   0   0 -21    0.02    1.04
   0   0  22   64.71    8.76
   0   0  22   48.83    6.45
   0   0  22   70.97    8.24
   0   0 -22   58.03    7.47
   0   0 -22   59.66    5.98
   0   0  23    0.08    0.95
   0   0  23    0.14    0.90
   0   0 -23    0.24    0.77
   0   0  24   89.51   10.81
   0   0  24   90.64   11.11
   0   0 -24   89.93    9.67
   0   0  25    0.05    0.50
   0   0  25   -0.03    0.71
   0   0 -25    0.08    0.63
   0   0  26   42.30    6.16
   0   0  26   41.22    6.07
   0   0 -26   43.69    5.62
   0   0  27    0.30    0.74
   0   0  27   -0.26    0.76
   0   0 -27    0.16    0.61
   0   0  28   14.01    2.90
   0   0 -28   11.64    2.63
   0   0  29    0.19    0.70
   0   1   3  752.36   19.94
   0  -1   3  770.37   17.84
   0  -1   3  761.19   18.68
   0  -1  -3  758.84   17.23
   0  -1  -3  703.25   16.98
   0   1  -3  729.31   19.95
   0  -1   4  876.72   23.40
   0  -1   4  851.57   14.88
   0  -1   4  859.35   22.30
   0   1   4  856.48   24.95
   0  -1  -4  823.17   21.07
   0  -1  -4  861.03   23.66
   0   1  -4  943.11   27.56
   0   1   5   12.00    0.85
   0  -1   5   12.38    0.43
   0  -1   5   13.71    0.65
   0  -1  -5   11.35    0.63
   0   1  -5   14.89    1.01
   0  -1  -5   11.17    0.81
   0  -1   6  322.91   11.31
   0  -1   6  309.33   11.05
   0   1   6  303.28   11.62
   0   1  -6  294.04   11.49
   0  -1  -6  308.05   11.47
   0  -1  -6  329.25    9.67
   0  -1   7 1474.06   55.86
   0  -1   7 1507.36   53.26
   0   1   7 1340.26   54.02
   0   1  -7 1481.27   57.68
   0  -1  -7 1525.23   45.32
   0  -1  -7 1440.24   55.46
   0   1   8  969.25   42.22
   0  -1   8 1004.37   39.37
   0  -1  -8 1058.53   34.18
   0   1  -8 1047.87   44.35
   0  -1  -8 1039.77   42.97
   0   1  -8 1015.15   23.83
   0  -1   9  240.45   10.74
   0   1   9  217.59   10.94
   0  -1  -9  243.93   11.91
   0  -1  -9  244.59    8.94
   0   1  -9  244.42    6.39
   0   1  -9  253.83   12.34
   0   1  10  115.00    7.13
   0  -1  10  129.85    6.57
   0   1 -10  136.74    4.01
   0  -1 -10  130.64    6.92
   0   1 -10  122.25    7.07
   0  -1 -10  124.69    5.08
   0  -1  11  353.17   17.95
   0   1  11  328.50   18.82
   0  -1 -11  356.54   13.75
   0   1 -11  348.16   10.21
   0   1 -11  349.38   18.20
   0  -1 -11  385.63   20.01
   0   1  12   40.26    3.24
   0  -1  12   49.48    3.55
   0   1  12   47.26    3.58
   0   1 -12   48.12    1.70
   0  -1 -12   48.58    2.41
   0   1 -12   42.85    4.02
   0  -1 -12   45.15    3.48
   0  -1  13  104.07    6.76
   0   1  13   89.92    7.46
   0  -1  13  110.24    6.65
   0   1  13   96.81    7.01
   0   1  13   97.99    7.21
   0   1  13  101.77    7.48
   0  -1  13  102.57    6.77
   0  -1 -13  103.41    4.71
   0   1 -13   99.34    6.95
   0   1 -13  116.64    7.86
   0  -1 -13  100.79    6.26
   0  -1  14  113.19    7.81
   0  -1  14  114.87    7.53
   0  -1  14   98.53    6.81
   0  -1  14  110.13    7.55
   0   1  14  105.91    8.78
   0   1  14  112.71    7.65
   0   1  14  110.78    8.65
   0   1  14   77.76    6.90
   0   1 -14  111.45    7.85
   0   1 -14  105.60    7.15
   0   1 -14  128.12    8.92
   0  -1 -14  115.38    7.82
   0  -1 -14  112.28    5.26
   0  -1  15  369.49   22.61
   0  -1  15  350.33   22.43
   0  -1  15  337.70   21.44
   0   1  15  356.16   23.74
   0   1  15  367.10   26.57
   0   1  15  340.38   24.98
   0   1  15  345.93   25.00
   0  -1  15  343.27   22.21
   0   1 -15  392.62   25.48
   0   1 -15  354.68   23.64
   0   1 -15  335.32   22.07
   0  -1 -15  363.26   24.17
   0  -1 -15  370.57   23.86
   0  -1 -15  348.14   16.43
   0  -1  16   38.16    3.79
   0  -1  16   45.21    4.66
   0  -1  16   45.11    4.39
   0   1  16   41.42    4.39
   0   1  16   46.63    5.13
   0   1  16   48.58    5.40
   0   1  16   48.87    5.19
   0  -1  16   46.46    4.43
   0   1 -16   46.01    4.68
   0  -1 -16   40.10    4.69
   0   1 -16   44.35    3.75
   0  -1 -16   46.86    4.66
   0   1 -16   44.08    4.36
   0   1  17   10.54    1.83
   0  -1  17    9.03    1.79
   0   1  17    7.33    2.14
   0  -1  17    8.04    1.91
   0  -1  17    4.49    1.52
   0   1  17   10.06    2.11
   0   1  17    3.83    1.70
   0  -1  17   11.55    1.83
   0  -1 -17    6.48    1.80
   0  -1 -17    6.86    1.31
   0   1 -17    8.50    1.76
   0   1 -17    9.88    1.96
   0   1 -17    8.79    1.73
   0  -1  18   74.47    7.22
   0   1  18   72.79    7.73
   0  -1  18   60.55    5.90
   0  -1  18   75.39    7.16
   0   1  18   70.79    7.56
   0   1  18   59.13    6.53
   0  -1  18   68.75    6.90
   0   1  18   73.70    7.21
   0   1 -18   71.70    6.40
   0   1 -18   65.76    6.12
   0   1 -18   79.34    7.57
   0   1 -18   62.41    5.48
   0  -1 -18   67.46    6.77
   0  -1 -18   70.70    7.25
   0  -1  19    0.28    0.80
   0  -1  19    0.00    0.80
   0   1  19    0.88    1.08
   0  -1  19    0.55    0.94
   0   1  19    0.62    0.98
   0  -1  19    1.70    0.59
   0   1  19    0.08    0.93
   0   1  19    0.14    0.76
   0   1 -19    0.24    0.87
   0  -1 -19   -0.01    0.83
   0   1 -19   -0.09    0.77
   0   1 -19    0.67    0.94
   0  -1 -19    0.10    0.80
   0  -1  20   10.32    2.54
   0   1  20   11.42    2.90
   0  -1  20    8.64    2.78
   0  -1  20   10.90    2.45
   0   1  20    9.63    2.87
   0   1  20    5.90    2.24
   0   1  20    9.00    2.27
   0  -1 -20    8.82    2.22
   0   1 -20    9.85    2.43
   0   1 -20    7.35    1.84
   0  -1 -20    8.25    2.37
   0   1 -20   10.27    2.13
   0   1  21  270.25   24.61
   0  -1  21  299.33   28.45
   0   1  21  306.38   29.58
   0   1  21  333.09   30.24
   0   1  21  260.20   26.71
   0  -1  21  309.87   27.33
   0  -1  21  299.66   26.76
   0   1 -21  317.74   26.53
   0  -1 -21  310.40   25.27
   0  -1 -21  292.74   26.65
   0   1 -21  289.95   26.03
   0   1  22   11.73    3.95
   0   1  22    6.06    2.61
   0  -1  22   14.27    3.11
   0   1  22   11.69    3.14
   0  -1  22   12.08    3.54
   0   1  22   11.23    3.54
   0  -1  22   16.37    2.91
   0   1 -22   10.73    2.78
   0   1 -22    9.63    2.93
   0  -1 -22   10.91    2.26
   0  -1 -22    8.70    2.53
   0   1  23  112.95   12.82
   0   1  23  127.04   15.41
   0   1  23  139.46   14.77
   0  -1  23  137.77   14.74
   0  -1  23  126.34   13.99
   0   1 -23  128.45   13.45
   0  -1 -23  127.97   12.63
   0  -1  24   10.19    2.68
   0   1  24    9.94    2.85
   0   1  24    6.91    2.72
   0  -1  24    8.03    2.66
   0  -1 -24    5.03    2.49
   0   1 -24    6.95    2.33
   0  -1  25   -0.10    0.87
   0  -1  25    0.07    0.88
   0   1  25    0.56    0.89
   0   1  25    0.32    0.89
   0   1 -25    0.28    0.79
   0  -1 -25    0.07    0.82
   0  -1  26    6.46    2.03
   0   1  26    4.56    2.30
   0  -1  26    5.20    1.95
   0   1  26    4.69    2.10
   0   1 -26    4.35    1.87
   0  -1 -26    3.13    1.84
   0  -1  27    7.83    2.33
   0   1  27    9.49    2.59
   0  -1  27    8.73    2.45
   0  -1 -27    5.59    2.54
   0   1 -27    7.17    2.26
   0   1  28    2.77    1.62
   0  -1  28    2.92    1.44
   0  -1  28    5.75    1.70
   0   1 -28    1.31    1.45
   0  -2   0 1714.50   45.95
   0   2   0 1786.89   49.74
   0  -2   1   31.76    0.98
   0   2   1   32.54    1.29
   0   2  -1   31.92    1.22
   0  -2  -1   31.07    0.98
   0  -2  -1   34.50    0.72
   0   2   2 1896.63   59.65
   0  -2   2 1824.59   42.05
   0   2  -2 2051.29   52.61
   0   2  -2 1967.98   50.27
   0  -2   3 2050.66   58.12
   0   2   3 1996.26   60.63
   0  -2   3 2022.46   40.32
   0  -2  -3 1894.73   40.85
   0  -2  -3 1823.30   53.55
   0   2  -3 1876.81   54.93
   0   2  -3 1839.77   52.53
   0  -2   4  169.94    3.85
   0  -2   4  165.78    5.73
   0   2   4  184.73    6.99
   0  -2   4  182.05    5.45
   0  -2  -4  171.00    5.65
   0  -2  -4  165.61    4.62
   0   2  -4  171.03    6.17
   0   2   5  726.47   27.24
   0  -2   5  892.66   26.20
   0  -2   5  847.55   27.46
   0  -2   5  755.34   15.95
   0  -2  -5  744.06   24.63
   0   2  -5  745.75   27.39
   0  -2  -5  717.13   21.72
   0  -2   6  660.15   21.80
   0   2   6  616.67   25.25
   0  -2   6  638.43   22.07
   0  -2   6  673.61   14.32
   0   2  -6  628.97   25.35
   0  -2  -6  649.14   22.73
   0  -2  -6  648.25   21.89
   0  -2   7  530.72   12.35
   0  -2   7  480.99   17.96
   0   2   7  507.72   23.20
   0  -2   7  475.03   18.45
   0   2  -7  450.46   19.62
   0  -2  -7  480.18   18.47
   0  -2  -7  499.62   18.54
   0  -2   8  383.54    9.80
   0  -2   8  372.89   15.82
   0   2   8  395.65   19.77
   0  -2   8  411.50   16.77
   0   2  -8  397.21   18.15
   0  -2  -8  369.72   16.04
   0  -2  -8  412.02   15.87
   0   2   9 1365.02   69.42
   0  -2   9 1426.17   61.74
   0  -2   9 1352.32   57.60
   0   2  -9 1439.78   66.09
   0  -2  -9 1329.26   59.04
   0   2  -9 1405.21   30.00
   0  -2  -9 1443.50   55.04
   0  -2  10   35.69    2.80
   0  -2  10   29.93    2.50
   0   2  10   30.47    2.65
   0   2 -10   33.87    0.94
   0  -2 -10   29.92    2.40
   0  -2 -10   34.30    2.11
   0   2 -10   29.66    2.88
   0  -2  11 1165.24   55.36
   0   2  11 1115.43   65.32
   0   2 -11 1116.34   56.55
   0  -2 -11 1109.13   45.84
   0  -2 -11 1083.25   54.21
   0   2  12   53.11    4.97
   0   2  12   49.70    5.06
   0  -2  12   60.62    3.86
   0  -2  12   52.78    3.74
   0  -2  12   50.26    3.33
   0  -2 -12   54.27    3.06
   0   2 -12   55.85    4.58
   0  -2 -12   55.57    4.00
   0   2  13  122.60    9.69
   0   2  13  118.17    9.33
   0  -2  13  113.48    7.37
   0   2  13  114.90    8.76
   0  -2  13  115.53    7.18
   0   2  13  117.65    9.57
   0  -2  13  136.35    8.55
   0   2 -13  118.85    8.93
   0   2 -13  115.85    8.37
   0  -2 -13  100.59    7.82
   0  -2 -13  119.15    6.06
   0  -2 -13  125.12    8.12
   0   2 -13  129.94    9.13
   0  -2  14    0.60    0.39
   0  -2  14    1.05    0.65
   0   2  14    0.86    0.58
   0   2  14    1.13    0.86
   0   2  14    0.39    0.49
   0  -2  14    0.05    0.45
   0   2  14    0.08    0.68
   0  -2  14    1.73    0.58
   0   2  14    2.64    0.81
   0   2 -14    1.91    0.66
   0  -2 -14    0.01    0.62
   0  -2 -14    0.30    0.39
   0   2 -14    2.03    0.54
   0  -2 -14    0.75    0.59
   0   2 -14    0.35    0.47
   0   2  15   50.43    4.92
   0  -2  15   48.15    3.81
   0  -2  15   36.95    3.48
   0   2  15   49.28    5.54
   0   2  15   45.62    5.07
   0  -2  15   50.07    4.17
   0   2  15   44.85    4.64
   0  -2  15   49.66    3.83
   0   2 -15   47.53    4.43
   0  -2 -15   56.02    3.84
   0   2 -15   48.01    4.86
   0  -2 -15   44.66    4.38
   0  -2 -15   48.12    4.28
   0   2 -15   50.73    5.19
   0  -2  16  246.31   17.63
   0   2  16  239.54   19.28
   0  -2  16  250.64   17.53
   0   2  16  253.90   20.43
   0   2  16  216.99   18.83
   0   2  16  258.45   22.50
   0  -2  16  251.23   17.41
   0  -2 -16  247.37   17.73
   0  -2 -16  309.06   16.92
   0   2 -16  246.77   18.59
   0   2 -16  285.10   20.74
   0  -2 -16  243.85   18.32
   0   2 -16  247.57   18.10
   0   2  17   30.13    4.67
   0   2  17   40.13    5.56
   0   2  17   40.42    5.22
   0  -2  17   34.87    3.93
   0   2  17   33.12    4.62
   0  -2  17   35.71    3.92
   0  -2  17   36.76    4.40
   0  -2 -17   31.27    3.97
   0   2 -17   36.17    3.62
   0   2 -17   33.41    3.44
   0   2 -17   39.98    4.28
   0  -2 -17   36.27    4.11
   0  -2  18  258.70   20.13
   0   2  18  248.86   21.47
   0  -2  18  251.73   19.38
   0  -2  18  261.68   20.53
   0   2  18  249.30   22.14
   0   2  18  219.92   20.68
   0   2  18  259.65   23.17
   0   2 -18  244.90   19.02
   0  -2 -18  246.08   19.48
   0  -2 -18  254.13   20.21
   0   2 -18  233.86   20.00
   0   2 -18  242.20   19.11
   0  -2  19   11.61    2.15
   0   2  19    9.71    2.78
   0   2  19    7.00    2.32
   0  -2  19    8.41    2.15
   0   2  19   13.06    3.29
   0  -2  19    8.48    2.46
   0   2  19   12.60    3.16
   0  -2 -19    9.67    2.28
   0   2 -19    9.93    1.87
   0   2 -19    9.11    2.47
   0  -2 -19    5.26    2.07
   0   2 -19   11.42    2.24
   0   2 -19    9.94    2.12
   0   2  20   21.52    4.29
   0   2  20   15.56    3.55
   0   2  20   20.44    5.04
   0  -2  20   24.08    3.75
   0  -2  20   30.87    4.06
   0   2  20   28.31    5.19
   0  -2  20   24.56    3.82
   0  -2 -20   19.67    3.77
   0   2 -20   23.48    3.95
   0  -2 -20   16.97    3.34
   0   2 -20   21.59    3.25
   0   2 -20   21.53    3.93
   0  -2  21  223.85   19.86
   0   2  21  190.33   18.78
   0   2  21  206.15   23.02
   0   2  21  241.04   25.22
   0  -2  21  229.89   20.93
   0   2  21  230.64   22.68
   0  -2  21  215.01   19.34
   0   2 -21  231.52   18.93
   0  -2 -21  218.08   19.66
   0   2 -21  221.62   20.92
   0  -2 -21  203.33   20.60
   0   2 -21  227.94   19.98
   0   2  22    4.14    2.52
   0  -2  22    5.16    1.49
   0   2  22    1.11    1.81
   0  -2  22    6.95    1.97
   0   2  22    5.59    2.20
   0  -2 -22    2.20    1.73
   0   2 -22    4.21    2.02
   0   2 -22    6.35    1.71
   0   2  23   15.26    4.79
   0  -2  23   22.86    3.28
   0   2  23   24.19    4.53
   0  -2  23   22.34    4.10
   0   2 -23   18.35    3.39
   0   2 -23   22.97    4.07
   0  -2 -23   18.71    3.85
   0  -2  24    3.92    1.80
   0   2  24    3.39    2.07
   0   2  24    2.82    1.61
   0  -2  24    3.00    1.88
   0  -2 -24    2.97    1.73
   0   2 -24    4.59    1.73
   0   2  25    3.88    2.32
   0  -2  25    4.45    1.98
   0   2  25    3.67    2.22
   0  -2  25    7.67    2.08
   0   2 -25    5.10    1.87
   0  -2 -25    2.10    1.60
   0  -2  26    8.52    2.60
   0   2  26    8.45    2.84
   0  -2  26    6.76    2.50
   0   2 -26    9.17    2.34
   0  -2  27   21.90    3.75
   0  -2  27   19.97    3.63
   0   2 -27   19.72    3.45
   0  -2  28   17.24    3.04
   0   2  28   14.34    3.47
   0  -2  28   16.78    3.13
   0   2 -28   18.41    2.89
   0  -2 -28   18.62    3.32
   0   3   0   -0.16    0.34
   0  -3   0    3.08    0.32
   0   3   1   50.68    2.39
   0  -3   1   50.87    1.91
   0   3  -1   48.77    2.24
   0  -3  -1   64.47    2.45
   0  -3   2  227.91    6.90
   0   3   2  209.43    8.37
   0   3  -2  207.13    7.68
   0  -3  -2  210.39    4.51
   0   3  -2  211.15    6.72
   0  -3  -2  195.75    6.93
   0   3   3  416.27   16.01
   0  -3   3  398.89   11.32
   0   3  -3  356.40   12.80
   0  -3  -3  370.26    8.57
   0  -3  -3  383.03   13.20
   0   3  -3  402.89   13.12
   0   3   4    2.99    0.42
   0  -3   4    2.25    0.45
   0  -3   4    2.85    0.30
   0  -3  -4    2.56    0.23
   0   3  -4    2.33    0.34
   0   3  -4    1.84    0.29
   0  -3  -4    4.76    0.49
   0  -3   5  312.35   11.06
   0  -3   5  333.62   12.94
   0   3   5  349.83   15.05
   0  -3   5  347.59    9.32
   0  -3  -5  311.19    9.31
   0  -3  -5  319.64   12.52
   0   3  -5  348.63   13.68
   0  -3   6    1.17    0.36
   0  -3   6    0.93    0.32
   0  -3   6    1.31    0.17
   0   3   6    0.41    0.30
   0   3  -6    0.34    0.31
   0  -3  -6    0.68    0.27
   0  -3  -6    0.75    0.37
   0  -3   7   35.90    2.02
   0  -3   7   34.56    1.13
   0  -3   7   33.00    1.72
   0   3   7   31.95    2.36
   0   3  -7   35.99    2.29
   0  -3  -7   24.80    1.95
   0  -3  -7   32.97    1.57
   0  -3   8  465.01   20.48
   0  -3   8  476.38   20.19
   0   3   8  482.63   26.14
   0  -3   8  489.76   12.23
   0  -3  -8  465.89   19.15
   0  -3  -8  467.13   20.63
   0   3  -8  481.67   23.09
   0  -3   9  154.69    7.73
   0  -3   9  157.10    7.95
   0  -3   9  169.40    4.62
   0   3   9  164.02   10.71
   0  -3  -9  159.20    7.60
   0  -3  -9  155.77    7.97
   0   3  -9  175.18    9.53
   0  -3  10  485.68   24.77
   0  -3  10  475.04   23.65
   0   3  10  441.73   27.57
   0  -3 -10  539.38   23.41
   0  -3 -10  414.83   21.09
   0   3 -10  480.30   25.52
   0   3  11  930.71   61.52
   0   3  11  938.92   59.61
   0  -3  11  924.30   50.68
   0  -3  11 1000.61   50.74
   0  -3  11  929.72   46.32
   0  -3  11  904.71   49.25
   0   3  11  967.40   59.70
   0   3 -11 1009.59   53.13
   0   3 -11  922.48   55.67
   0  -3 -11  877.17   45.01
   0  -3 -11  978.17   44.70
   0   3 -11  927.53   59.38
   0  -3  12  166.25    9.96
   0   3  12  150.49   11.47
   0  -3  12  140.18    8.98
   0   3  12  136.70   11.24
   0   3  12  116.39    8.17
   0   3  12  138.38   10.57
   0  -3  12  149.38    8.31
   0  -3  12  138.58    8.68
   0  -3 -12  132.64    8.50
   0   3 -12  138.15    9.17
   0   3 -12  148.20   10.15
   0  -3 -12  136.83    7.69
   0   3 -12  132.54    9.90
   0   3 -12  144.05   10.79
   0  -3  13    6.79    1.22
   0  -3  13    6.94    1.09
   0   3  13    3.01    1.11
   0   3  13    4.90    1.65
   0   3  13    3.39    1.51
   0  -3  13    5.18    0.83
   0   3  13    3.62    1.54
   0   3 -13    5.93    1.09
   0  -3 -13    6.36    0.71
   0   3 -13    6.18    1.49
   0   3 -13    3.55    0.93
   0   3 -13    5.61    1.29
   0  -3 -13    5.07    1.03
   0   3  14   46.16    5.88
   0   3  14   49.89    5.26
   0  -3  14   49.29    4.26
   0  -3  14   57.22    4.77
   0  -3  14   47.23    4.26
   0   3  14   44.40    5.25
   0   3  14   46.57    5.68
   0   3 -14   51.10    5.10
   0   3 -14   48.09    4.68
   0  -3 -14   47.81    4.16
   0  -3 -14   60.73    4.55
   0   3 -14   55.37    5.26
   0  -3 -14   37.76    4.22
   0   3  15   47.12    5.86
   0   3  15   48.27    5.25
   0  -3  15   48.07    4.40
   0   3  15   48.06    5.67
   0   3  15   47.36    5.18
   0  -3  15   49.88    4.59
   0  -3  15   49.03    4.55
   0  -3 -15   41.22    4.49
   0   3 -15   54.21    5.38
   0   3 -15   59.52    6.14
   0  -3 -15   66.33    5.07
   0   3 -15   50.24    5.07
   0  -3 -15   48.71    4.54
   0  -3  16  100.60    7.34
   0   3  16   97.15   10.10
   0   3  16  101.98   10.85
   0  -3  16  102.50    8.40
   0   3  16  100.69    9.79
   0  -3  16  110.45    8.89
   0   3  16  102.68   10.39
   0   3 -16  118.04    9.31
   0  -3 -16   99.19    8.27
   0   3 -16  100.02    8.78
   0  -3 -16   95.04    8.61
   0  -3 -16  112.66    8.18
   0   3 -16  107.30    9.69
   0   3  17   18.44    3.22
   0   3  17   19.54    3.72
   0  -3  17   22.13    2.33
   0  -3  17   20.26    3.09
   0   3  17   14.54    3.32
   0  -3  17   22.07    3.04
   0   3  17   18.71    4.05
   0   3 -17   20.30    2.93
   0   3 -17   21.95    3.25
   0  -3 -17   13.55    2.85
   0  -3 -17   22.21    2.42
   0  -3 -17   18.17    3.12
   0   3 -17   22.21    3.53
   0   3  18   37.14    5.12
   0   3  18   30.39    5.65
   0  -3  18   40.56    4.78
   0  -3  18   41.77    5.22
   0  -3  18   44.63    4.83
   0   3  18   34.33    5.06
   0   3  18   42.18    6.15
   0   3 -18   38.05    4.62
   0   3 -18   43.07    5.65
   0   3 -18   42.25    5.02
   0  -3 -18   42.04    4.92
   0  -3 -18   38.47    4.67
   0   3  19   78.61   10.46
   0  -3  19   75.25    7.53
   0   3  19   59.93    9.12
   0   3  19   70.28    9.17
   0  -3  19   76.30    8.03
   0  -3  19   77.34    7.43
   0   3  19   64.98    8.48
   0   3 -19   76.59    7.98
   0   3 -19   82.28    9.53
   0   3 -19   71.43    7.19
   0   3 -19   75.97    7.05
   0  -3 -19   70.45    7.42
   0   3  20   26.33    5.56
   0   3  20   32.36    5.62
   0   3  20   36.94    6.24
   0  -3  20   36.63    4.48
   0  -3  20   33.21    4.89
   0  -3  20   35.25    4.72
   0   3  20   25.69    4.58
   0   3 -20   34.15    4.51
   0   3 -20   38.07    5.10
   0   3 -20   31.06    4.21
   0   3 -20   32.87    5.87
   0  -3 -20   29.32    4.35
   0   3  21   14.40    3.29
   0  -3  21   12.39    3.28
   0   3  21    8.60    2.94
   0  -3  21   19.66    3.07
   0   3  21   15.94    4.54
   0   3  21   15.44    3.88
   0  -3  21   14.33    3.11
   0   3 -21    9.43    3.21
   0  -3 -21   10.17    2.73
   0   3 -21   13.94    2.50
   0   3 -21   12.11    3.34
   0   3 -21   16.99    2.76
   0   3  22   93.49   13.68
   0   3  22   86.87   11.35
   0  -3  22   82.75    9.86
   0  -3  22   97.00   10.23
   0   3 -22   94.26    9.02
   0   3 -22   96.36    9.70
   0   3  23   31.10    5.88
   0   3  23   23.05    5.99
   0  -3  23   26.38    3.64
   0  -3  23   22.40    4.60
   0   3 -23   26.21    4.35
   0   3 -23   25.14    3.98
   0   3  24   41.32    7.65
   0  -3  24   44.68    6.10
   0  -3  24   45.14    6.18
   0   3 -24   41.67    5.40
   0   3 -24   40.68    5.76
   0  -3  25    2.63    1.19
   0   3  25    0.37    0.95
   0  -3  25    0.31    1.07
   0   3 -25    0.54    0.75
   0  -3  26    9.08    2.74
   0   3  26    8.36    3.34
   0  -3  26   13.93    2.85
   0   3 -26   10.86    2.49
   0  -3 -26   12.07    2.86
   0  -3  27    9.86    2.46
   0  -3  27    9.71    2.49
   0   3  27    6.00    2.67
   0   3 -27   10.51    2.29
   0  -3 -27   10.92    2.53
   0  -3  28    3.84    1.30
   0   3  28    0.04    1.27
   0  -3 -28    2.48    1.13
   0   3 -28    0.67    1.09
   0   4   0  394.73   17.10
   0  -4   0  382.72   14.14
   0   4   0  382.72   10.60
   0   4   1 1847.17   73.07
   0  -4   1 1854.17   60.59
   0   4  -1 1831.42   70.30
   0  -4  -1 1622.80   61.37
   0   4  -1 1667.71   50.10
   0   4   2  135.31    6.71
   0  -4   2  148.99    5.78
   0   4  -2  154.69    5.57
   0  -4  -2  142.31    5.98
   0   4  -2  132.86    6.29
   0  -4   3  947.09   31.98
   0   4   3  956.54   41.94
   0   4  -3  959.37   34.35
   0  -4  -3 1156.20   45.69
   0   4  -3  849.43   34.51
   0   4   4  183.41    8.78
   0  -4   4  146.92    6.62
   0  -4   4  163.59    5.73
   0   4  -4  196.64    7.81
   0  -4  -4  162.71    4.06
   0   4  -4  160.14    7.06
   0  -4  -4  233.70   10.10
   0  -4   5  475.37   20.52
   0   4   5  502.23   24.62
   0  -4   5  510.08   16.67
   0  -4   5  457.93   17.92
   0   4  -5  535.19   22.21
   0  -4  -5  488.41   21.38
   0  -4  -5  477.26   13.67
   0  -4   6   46.57    2.52
   0  -4   6   58.96    3.07
   0   4   6   61.30    4.26
   0  -4   6   61.49    2.22
   0   4  -6   62.55    3.59
   0  -4  -6   59.40    3.64
   0  -4  -6   54.35    2.13
   0  -4   7 1271.09   36.93
   0  -4   7 1295.07   56.74
   0   4   7 1297.52   68.15
   0  -4   7 1294.52   52.47
   0   4  -7 1256.71   57.26
   0  -4  -7 1049.88   37.03
   0  -4  -7 1130.75   53.22
   0  -4   8  159.86    7.55
   0  -4   8  158.03    4.97
   0   4   8  158.90    9.59
   0  -4   8  149.86    7.48
   0  -4  -8  153.52    8.70
   0   4  -8  169.43    9.28
   0  -4  -8  133.85    5.76
   0   4   9   61.12    5.00
   0  -4   9   61.05    4.03
   0  -4   9   61.65    3.82
   0  -4  -9   56.46    3.26
   0   4  -9   68.57    4.67
   0  -4  -9   62.34    4.19
   0  -4  10   13.28    1.54
   0   4  10    8.68    1.89
   0  -4  10   11.72    1.18
   0  -4  10   11.16    1.42
   0   4  10   11.67    1.26
   0   4  10   11.97    2.21
   0  -4  10   11.38    1.40
   0   4  10   10.92    2.04
   0   4 -10   12.29    1.65
   0   4 -10   11.16    1.77
   0  -4 -10   13.71    1.59
   0  -4 -10   11.69    1.09
   0   4 -10   12.43    2.05
   0  -4  11  277.19   16.17
   0   4  11  258.43   20.04
   0   4  11  239.67   18.35
   0   4  11  236.16   15.83
   0  -4  11  263.71   14.88
   0  -4  11  244.97   15.29
   0  -4  11  282.09   16.71
   0   4  11  257.18   18.82
   0   4 -11  240.28   17.45
   0  -4 -11  230.49   13.16
   0   4 -11  249.90   17.57
   0   4 -11  250.31   18.50
   0   4 -11  265.74   15.52
   0  -4 -11  326.61   18.53
   0   4  12   31.01    4.00
   0  -4  12   31.98    3.15
   0  -4  12   35.25    3.16
   0  -4  12   54.26    3.67
   0   4  12   31.56    3.73
   0   4  12   30.42    3.91
   0   4  12   29.47    3.84
   0   4  12   33.43    3.72
   0   4 -12   36.25    3.55
   0  -4 -12   29.62    2.74
   0   4 -12   32.31    4.13
   0  -4 -12   43.68    3.86
   0   4 -12   32.38    3.70
   0   4 -12   23.91    3.33
   0  -4  13    8.27    1.48
   0   4  13    6.85    1.90
   0   4  13    6.22    1.80
   0  -4  13    7.64    1.43
   0   4  13    6.18    1.87
   0   4  13    5.51    1.38
   0   4  13    8.73    2.35
   0  -4  13    8.56    1.56
   0  -4  13    9.17    1.64
   0   4 -13    5.21    1.52
   0  -4 -13    7.86    1.33
   0   4 -13    9.31    1.69
   0   4 -13    7.81    1.83
   0   4 -13   10.61    1.55
   0  -4 -13    9.81    1.74
   0  -4  14   76.24    6.19
   0   4  14   75.50    7.68
   0   4  14   68.74    7.63
   0  -4  14   83.50    5.81
   0   4  14   76.38    6.99
   0   4  14   57.10    7.16
   0   4  14   73.42    8.75
   0  -4  14   76.35    6.35
   0  -4 -14   83.65    6.15
   0  -4 -14   68.05    5.70
   0   4 -14   73.75    6.78
   0   4 -14   79.49    7.19
   0   4 -14   73.68    7.32
   0   4 -14   69.78    6.56
   0   4  15    3.33    2.07
   0  -4  15    6.24    1.16
   0   4  15    8.20    2.36
   0   4  15    7.30    1.86
   0   4  15    8.33    2.20
   0  -4  15    6.66    1.48
   0  -4  15    8.13    1.74
   0   4 -15    7.64    1.61
   0   4 -15    7.10    1.83
   0   4 -15    6.69    1.98
   0  -4 -15    6.56    1.51
   0   4  16   16.69    4.32
   0   4  16   17.85    3.67
   0  -4  16   19.30    2.71
   0   4  16   14.91    3.71
   0   4  16   13.85    3.28
   0  -4  16   17.84    2.09
   0  -4  16   18.42    2.67
   0   4 -16   20.93    3.42
   0   4 -16   19.42    2.96
   0  -4 -16   19.19    2.49
   0   4 -16   19.38    3.66
   0  -4  17  244.20   18.75
   0  -4  17  240.97   18.96
   0   4  17  223.37   22.93
   0   4  17  241.17   23.07
   0   4  17  209.99   22.89
   0  -4  17  242.66   18.62
   0   4  17  245.27   25.02
   0   4 -17  246.28   19.99
   0   4 -17  254.41   21.76
   0   4 -17  222.32   18.96
   0  -4 -17  241.93   16.77
   0   4  18  112.96   12.73
   0  -4  18  135.86   12.00
   0   4  18  109.75   14.17
   0  -4  18  136.72   11.98
   0  -4  18  135.96   11.58
   0   4  18  126.12   14.13
   0   4  18  132.25   15.63
   0   4 -18  127.54   11.32
   0   4 -18  127.31   12.14
   0   4 -18  126.37   12.17
   0  -4  19  153.34   13.64
   0   4  19  146.42   16.19
   0  -4  19  158.83   14.62
   0  -4  19  162.16   12.56
   0   4  19  135.75   14.57
   0   4  19  125.28   16.62
   0   4  19  153.85   18.74
   0   4 -19  157.08   15.49
   0   4 -19  154.01   14.35
   0   4 -19  150.29   14.28
   0   4 -19  150.50   13.32
   0   4  20   10.16    3.95
   0  -4  20   12.74    2.62
   0  -4  20    9.69    2.80
   0   4  20   11.11    3.94
   0   4  20    8.41    3.13
   0  -4  20    8.33    2.41
   0   4 -20    9.03    2.75
   0   4 -20   11.92    2.47
   0   4 -20    9.98    2.55
   0   4 -20   11.48    3.14
   0   4  21   37.76    8.23
   0  -4  21   44.63    5.50
   0  -4  21   40.36    5.63
   0   4 -21   42.07    5.08
   0   4 -21   45.09    5.40
   0   4 -21   37.35    5.85
   0  -4  22   24.27    4.03
   0   4  22   20.09    4.36
   0   4  22   65.48    6.70
   0  -4  22   21.24    4.12
   0   4 -22   18.66    4.15
   0   4 -22   21.36    3.46
   0   4 -22   20.87    3.93
   0  -4  23  179.72   17.00
   0  -4  23  165.89   14.85
   0   4 -23  162.64   15.32
   0   4 -23  156.47   15.86
   0  -4 -23  166.96   18.64
   0  -4  24    1.70    1.60
   0  -4  24    3.88    1.58
   0   4  24    0.75    2.16
   0   4 -24    3.51    1.48
   0   4 -24    2.50    1.40
   0  -4 -24    3.97    1.84
   0  -4  25   51.80    6.62
   0   4  25   50.62    8.46
   0  -4  25   49.68    5.43
   0  -4 -25   56.71    7.49
   0   4 -25   56.79    6.41
   0   4 -25   54.91    5.92
   0   4  26    0.28    1.57
   0  -4  26    1.03    1.39
   0  -4  26    3.45    1.26
   0  -4 -26    0.96    1.40
   0   4 -26    2.69    1.18
   0   4  27   30.00    5.56
   0  -4  27   36.10    4.85
   0  -4  27   35.47    4.47
   0   4 -27   37.29    4.66
   0  -4 -27   34.19    5.00
   0   5   0    1.29    0.32
   0   5   0    0.07    0.16
   0  -5   0    0.81    0.29
   0  -5   1   21.55    1.49
   0   5   1   21.86    1.77
   0   5   1   20.03    0.64
   0   5  -1   18.49    1.67
   0   5  -1   20.28    0.94
   0  -5  -1   20.50    1.53
   0   5   2   23.38    1.66
   0  -5   2   15.91    1.26
   0   5  -2   16.68    1.10
   0   5  -2   14.32    1.36
   0  -5  -2   15.48    1.39
   0   5   3  248.08   13.13
   0  -5   3  269.49   10.96
   0   5  -3  230.58   11.40
   0  -5  -3  263.31   12.71
   0   5  -3  279.49   11.09
   0  -5   4  506.06   19.12
   0   5   4  460.56   23.43
   0   5  -4  439.61   20.58
   0  -5  -4  535.51   24.90
   0   5  -4  520.56   21.26
   0  -5   5  301.70   11.65
   0  -5   5  279.97   12.63
   0  -5   5  300.00   14.67
   0   5   5  305.46   17.15
   0  -5  -5  333.21   16.38
   0   5  -5  321.53   14.52
   0   5   6  152.33    9.83
   0  -5   6  150.08    8.44
   0  -5   6  158.30    6.36
   0  -5   6  147.47    7.45
   0   5  -6  159.83    8.28
   0  -5  -6  189.40   11.47
   0   5   7   35.57    3.49
   0  -5   7   37.85    3.01
   0  -5   7   37.94    1.92
   0  -5   7   37.83    2.63
   0   5  -7   39.62    2.89
   0  -5  -7   45.07    4.26
   0   5  -7   35.28    3.43
   0  -5   8  387.73   20.83
   0  -5   8  390.31   19.06
   0   5   8  354.43   24.99
   0  -5   8  352.48   19.92
   0   5   8  360.15   23.87
   0   5   8  385.98   26.96
   0   5   8  358.80   24.49
   0   5  -8  363.29   23.45
   0  -5  -8  450.38   26.41
   0   5  -8  382.63   20.70
   0   5  -8  361.43   26.41
   0   5  -8  351.68   22.43
   0  -5  -8  356.33   24.13
   0   5   9    0.01    0.84
   0   5   9    2.14    0.76
   0  -5   9    1.45    0.60
   0   5   9    0.57    0.79
   0  -5   9    0.82    0.37
   0  -5   9    0.44    0.51
   0   5   9    0.86    0.83
   0   5  -9    3.58    0.74
   0  -5  -9    3.21    0.95
   0   5  -9    0.12    0.89
   0   5  -9    0.43    0.74
   0   5  -9    0.59    0.68
   0   5  -9    0.52    0.60
   0  -5  -9    0.50    0.80
   0   5  10   22.65    3.25
   0   5  10   21.44    2.98
   0  -5  10   23.54    1.92
   0  -5  10   24.37    2.27
   0  -5  10   21.72    1.92
   0  -5  10   21.98    1.88
   0   5  10   25.34    3.23
   0   5  10   19.81    2.39
   0   5 -10   18.63    2.26
   0   5 -10   25.53    2.52
   0   5 -10   21.20    2.87
   0  -5 -10   21.93    3.00
   0  -5 -10   30.00    3.47
   0   5 -10   21.45    2.86
   0   5 -10   23.95    3.41
   0   5  11  571.73   44.55
   0   5  11  567.93   41.22
   0  -5  11  576.66   34.61
   0  -5  11  549.18   32.76
   0   5  11  573.82   42.29
   0  -5  11  570.25   34.70
   0   5  11  565.48   42.31
   0   5  11  584.32   43.87
   0  -5  11  642.84   35.29
   0   5 -11  549.11   39.33
   0   5 -11  577.59   42.18
   0   5 -11  604.82   35.98
   0  -5 -11  569.13   41.42
   0   5 -11  585.33   43.47
   0  -5 -11  618.90   37.14
   0   5 -11  595.68   40.52
   0   5  12   19.20    3.56
   0  -5  12   18.68    2.56
   0   5  12   17.33    2.95
   0  -5  12   18.01    1.97
   0   5  12   20.24    3.35
   0  -5  12   20.76    2.56
   0   5  12   14.88    3.20
   0  -5  12   19.85    2.35
   0   5 -12   18.05    2.84
   0   5 -12   20.56    2.25
   0  -5 -12   21.31    2.70
   0   5 -12   17.71    2.53
   0   5 -12   17.74    2.86
   0   5 -12   13.24    2.68
   0  -5  13  204.38   15.20
   0   5  13  193.55   17.47
   0  -5  13  213.07   14.56
   0   5  13  205.43   18.66
   0  -5  13  221.58   15.54
   0   5  13  200.45   18.07
   0  -5  13  224.29   15.71
   0   5  13  202.43   19.42
   0   5  13  212.59   17.54
   0   5 -13  216.38   18.24
   0   5 -13  192.23   16.60
   0   5 -13  210.77   17.00
   0  -5 -13  220.97   14.41
   0   5 -13  226.58   16.61
   0   5  14  119.29   10.79
   0   5  14  107.57   10.76
   0   5  14   99.61   10.94
   0  -5  14  118.26    9.07
   0  -5  14  120.98    8.83
   0  -5  14  124.15    9.47
   0   5  14   80.73   11.54
   0  -5  14  113.65    9.49
   0   5  14  107.93   12.68
   0   5 -14  123.55   11.78
   0  -5 -14  128.66    9.65
   0   5 -14  108.87   10.23
   0   5 -14   99.71    9.83
   0   5 -14  125.52   10.77
   0   5  15  107.51   13.17
   0   5  15  102.43   13.30
   0   5  15  105.15   11.66
   0  -5  15  110.14    9.83
   0  -5  15  126.99   10.15
   0   5  15  115.45   11.08
   0  -5  15  128.75    9.89
   0  -5 -15  120.06    9.31
   0   5 -15  110.86   10.79
   0   5 -15  116.02   10.43
   0   5 -15  121.91   11.28
   0  -5  16   44.88    4.63
   0   5  16   36.69    5.62
   0  -5  16   48.09    5.03
   0  -5  16   34.20    4.70
   0   5  16   38.54    5.37
   0   5  16   38.78    7.11
   0  -5 -16   40.04    4.49
   0   5 -16   42.69    5.63
   0   5 -16   39.16    5.15
   0   5 -16   42.31    5.38
   0  -5  17   15.26    2.64
   0   5  17    9.38    4.27
   0   5  17   24.57    4.04
   0  -5  17   16.23    2.72
   0  -5  17   16.13    2.95
   0   5 -17   16.53    3.38
   0   5 -17   16.90    3.16
   0  -5 -17   15.57    2.63
   0   5 -17   12.56    3.12
   0   5  18   13.50    4.00
   0  -5  18   20.11    2.94
   0  -5  18   17.91    3.16
   0   5  18   17.38    5.14
   0  -5  18   21.74    3.46
   0  -5 -18   17.98    4.08
   0   5 -18   18.00    3.13
   0   5 -18   18.53    3.52
   0   5 -18   16.05    3.14
   0  -5 -18   20.57    2.93
   0   5 -18   15.65    3.44
   0  -5  19  103.29   10.96
   0   5  19   94.51   11.37
   0   5  19   78.27   12.98
   0  -5  19  105.78   10.24
   0  -5  19  101.66    9.52
   0   5 -19   92.58   10.88
   0  -5 -19   99.07   12.29
   0   5 -19   95.30    9.65
   0   5 -19  102.29   11.01
   0   5 -19  105.25   10.35
   0  -5  20  112.12   10.86
   0   5  20  114.07   12.78
   0   5  20  110.44   16.24
   0  -5  20  114.39   10.11
   0   5 -20  116.08   11.98
   0   5 -20  109.44   10.78
   0   5 -20  120.36   11.55
   0  -5 -20  120.75   14.14
   0   5  21   -0.08    1.96
   0   5  21   -0.02    1.49
   0  -5  21    1.09    1.35
   0  -5  21    3.16    1.22
   0   5 -21    0.60    1.18
   0  -5 -21    0.82    1.70
   0   5 -21    1.03    1.32
   0   5 -21    5.10    1.39
   0  -5  22    7.58    2.24
   0  -5  22    9.92    2.48
   0   5  22    0.03    2.34
   0   5  22    8.35    3.48
   0   5 -22    7.31    1.42
   0   5 -22    9.46    2.16
   0  -5 -22    9.03    2.88
   0   5 -22    6.72    2.26
   0   5  23    2.46    2.92
   0  -5  23    6.05    2.00
   0  -5  23    5.50    1.85
   0   5 -23    5.65    1.70
   0  -5 -23    4.09    1.74
   0   5 -23    4.74    1.95
   0   5  24    2.42    2.16
   0  -5  24    3.41    1.53
   0  -5  24    3.34    1.65
   0   5 -24    4.87    1.63
   0  -5 -24    2.95    1.98
   0   5 -24    3.04    1.41
   0   5  25   31.63    6.29
   0  -5  25   39.57    5.15
   0  -5  25   36.69    4.73
   0  -5 -25   36.47    5.62
   0   5 -25   33.11    4.18
   0   5 -25   35.56    4.36
   0   5  26    4.60    2.39
   0  -5  26    9.73    2.02
   0  -5  26   10.76    2.16
   0   5 -26    6.70    1.85
   0  -5 -26    8.12    2.32
   0   5 -26    5.01    1.66
   0   5  27   12.67    2.97
   0  -5  27   15.65    2.75
   0   5 -27   15.42    2.47
   0  -5 -27   15.50    2.82
   0   6   0  846.43   43.98
   0  -6   0  912.93   42.50
   0  -6   1  418.15   19.39
   0   6   1  366.58   19.56
   0   6   1  336.08   24.19
   0   6  -1  434.72   22.60
   0   6  -1  416.25   25.31
   0  -6  -1  390.60   18.99
   0  -6   2   10.07    1.06
   0   6   2    9.62    1.32
   0   6   2    6.56    1.52
   0   6   2   10.14    1.60
   0   6  -2    8.51    1.49
   0   6  -2    9.38    1.27
   0  -6  -2    8.76    1.22
   0   6  -2    8.75    1.58
   0   6  -2    8.11    0.67
   0   6   3  181.51   10.68
   0   6   3  196.61   13.23
   0   6   3  192.99   12.72
   0  -6   3  194.98    9.19
   0  -6  -3  194.36   10.72
   0   6  -3  192.59   13.26
   0   6  -3  173.44    9.82
   0   6  -3  207.97    8.58
   0   6  -3  201.23   13.20
   0  -6   4  143.90    6.71
   0   6   4  157.58   10.80
   0   6   4  152.22    9.53
   0   6   4  151.34   10.90
   0  -6   4  143.28    8.57
   0  -6  -4  140.69    9.89
   0   6  -4  167.87    7.73
   0   6  -4  155.35   10.79
   0   6  -4  112.32    8.63
   0   6  -4  135.22    7.66
   0  -6  -4  159.67    9.20
   0  -6   5  352.69   15.43
   0   6   5  350.99   21.43
   0  -6   5  354.81   19.29
   0   6   5  363.32   23.97
   0  -6   5  337.76   16.42
   0  -6   5  351.27   19.56
   0   6   5  359.59   24.64
   0   6  -5  361.37   25.21
   0   6  -5  371.04   17.60
   0  -6  -5  358.12   23.54
   0   6  -5  374.69   23.53
   0   6  -5  368.13   24.28
   0   6  -5  342.92   20.95
   0  -6  -5  372.43   20.70
   0   6   6    1.55    0.89
   0  -6   6    1.23    0.52
   0  -6   6    3.25    0.61
   0   6   6    0.23    0.86
   0   6   6    1.26    0.93
   0   6   6    2.48    0.71
   0  -6   6    1.50    0.40
   0  -6   6    1.64    0.66
   0   6  -6    0.64    0.59
   0  -6  -6    1.55    0.75
   0   6  -6    2.25    0.75
   0  -6  -6    1.62    0.86
   0   6  -6    0.92    0.86
   0   6  -6    1.04    0.52
   0   6  -6    1.52    0.70
   0  -6   7   85.29    5.63
   0  -6   7   85.99    5.64
   0   6   7   80.94    7.14
   0   6   7   82.55    6.45
   0   6   7   85.72    6.89
   0  -6   7   90.99    5.20
   0   6   7   78.64    6.20
   0  -6  -7   77.90    6.81
   0   6  -7   81.40    6.22
   0   6  -7   77.59    4.70
   0  -6  -7   55.63    5.03
   0   6  -7   80.34    6.07
   0   6  -7   80.90    7.44
   0   6  -7   82.55    6.72
   0   6  -7   74.43    6.16
   0   6   8    6.27    1.18
   0   6   8    3.74    1.58
   0  -6   8    6.89    1.18
   0  -6   8    7.46    1.30
   0  -6   8    6.95    1.11
   0   6   8    5.81    1.65
   0   6   8    5.18    1.45
   0   6   8    7.01    1.23
   0  -6  -8    6.01    1.69
   0  -6  -8    6.53    1.19
   0   6  -8    6.78    1.61
   0   6  -8    6.28    1.17
   0   6  -8    6.67    1.53
   0   6  -8    6.06    1.44
   0   6  -8    7.11    1.80
   0   6  -8    4.48    1.31
   0  -6   9  342.36   20.75
   0   6   9  334.67   25.30
   0  -6   9  338.83   20.22
   0  -6   9  354.00   19.29
   0   6   9  338.94   26.26
   0   6   9  341.12   26.25
   0   6   9  378.12   28.94
   0   6   9  336.31   26.14
   0   6  -9  351.33   25.25
   0   6  -9  346.58   23.82
   0   6  -9  328.96   24.79
   0  -6  -9  335.29   24.17
   0  -6  -9  350.37   23.29
   0   6  -9  328.12   18.95
   0   6  -9  350.49   27.10
   0   6  -9  344.30   25.04
   0  -6  10  114.51    7.47
   0  -6  10  106.84    7.57
   0  -6  10  104.44    7.33
   0   6  10  103.02    9.93
   0   6  10  109.27   10.92
   0   6  10   99.37    9.51
   0   6  10  104.19    9.90
   0   6 -10  104.61    7.53
   0  -6 -10  101.08    9.42
   0   6 -10   99.76    8.34
   0   6 -10  101.03    9.25
   0   6 -10  102.53    7.95
   0   6 -10  102.40    9.00
   0   6 -10   99.04    9.11
   0  -6 -10  105.48    8.02
   0   6  11   73.51    8.25
   0  -6  11   94.19    6.91
   0  -6  11   87.35    6.88
   0   6  11   82.34    9.37
   0  -6  11   85.17    6.61
   0   6  11   81.68    8.56
   0   6  11   82.86    8.70
   0  -6  11   83.39    6.43
   0   6 -11   74.60    6.68
   0   6 -11   77.37    7.60
   0   6 -11   87.18    8.98
   0   6 -11   86.13    7.46
   0  -6 -11   81.22    7.38
   0  -6 -11   84.02    7.50
   0   6 -11   83.40    6.72
   0  -6  12   18.12    2.51
   0  -6  12   19.37    2.47
   0   6  12   16.30    3.32
   0  -6  12   17.42    2.55
   0  -6  12   15.39    2.09
   0   6  12   14.80    3.27
   0   6  12   17.08    3.09
   0   6  12   14.62    3.46
   0  -6 -12   15.62    2.98
   0   6 -12   15.13    2.92
   0  -6 -12   17.70    2.59
   0   6 -12   17.53    2.37
   0   6 -12   14.11    2.64
   0   6 -12   16.70    3.35
   0   6 -12   17.11    2.05
   0   6  13   13.07    2.87
   0  -6  13   10.09    2.37
   0   6  13    8.06    3.17
   0   6  13    9.43    2.16
   0  -6  13    9.57    2.08
   0  -6  13   14.18    2.39
   0   6  13   11.35    2.64
   0  -6  13   16.63    2.17
   0  -6 -13    8.82    2.85
   0   6 -13   10.82    1.71
   0   6 -13    8.12    2.54
   0  -6 -13   13.15    2.25
   0   6 -13   12.98    2.10
   0   6 -13   11.34    2.93
   0   6 -13   10.29    2.38
   0   6  14    0.84    1.42
   0   6  14    0.20    1.31
   0  -6  14    2.44    0.96
   0  -6  14    1.80    0.68
   0   6  14    0.36    1.04
   0  -6  14    0.99    0.78
   0   6  14    3.81    1.22
   0   6 -14    0.38    1.03
   0  -6 -14    4.70    1.43
   0   6 -14    2.44    1.18
   0  -6 -14    1.25    1.04
   0   6 -14    0.07    1.27
   0   6 -14    0.66    0.77
   0  -6  15    1.52    1.38
   0   6  15    4.80    2.92
   0   6  15    6.03    2.79
   0   6  15    8.05    2.27
   0  -6  15   10.70    1.90
   0  -6  15   10.10    2.08
   0   6  15    8.59    2.53
   0  -6  15    9.02    2.15
   0   6 -15   11.08    1.90
   0  -6 -15    7.42    2.66
   0   6 -15    9.28    2.22
   0  -6 -15    8.30    1.93
   0   6 -15    4.15    1.44
   0   6 -15   11.55    2.46
   0   6  16   49.85    7.10
   0  -6  16   59.17    5.68
   0  -6  16   66.17    6.84
   0   6  16   53.00    7.59
   0   6  16   47.83    8.19
   0  -6  16   59.06    5.91
   0   6  16   55.75    6.70
   0  -6 -16   56.69    8.15
   0   6 -16   58.05    6.38
   0   6 -16   64.62    7.68
   0  -6 -16   58.77    6.18
   0   6 -16   58.85    7.10
   0  -6  17    2.54    1.22
   0   6  17    0.03    1.92
   0   6  17    0.93    1.27
   0  -6  17    1.57    1.38
   0  -6  17    1.33    0.79
   0   6  17    3.14    1.72
   0  -6 -17    3.32    1.26
   0  -6 -17    0.41    1.59
   0   6 -17    4.08    1.51
   0   6 -17    0.60    1.32
   0   6 -17    2.72    1.30
   0   6 -17    1.23    1.12
   0  -6  18   31.74    4.88
   0   6  18   26.94    4.95
   0  -6  18   40.46    5.20
   0  -6  18   33.28    4.27
   0   6  18   26.52    6.63
   0   6  18   26.32    5.43
   0   6 -18   35.05    5.09
   0   6 -18   29.61    4.81
   0   6 -18   28.82    4.22
   0  -6 -18   32.17    4.93
   0   6 -18   32.87    4.75
   0  -6 -18   34.82    6.06
   0  -6  19   27.36    3.90
   0  -6  19   17.84    4.41
   0   6  19   24.98    5.88
   0   6  19   22.64    4.74
   0   6 -19   25.38    3.96
   0   6 -19   29.14    4.47
   0  -6 -19   31.04    5.75
   0   6 -19   26.90    3.37
   0   6  20   34.82    6.51
   0  -6  20   47.41    5.95
   0  -6  20   45.63    5.42
   0   6  20   42.12    6.52
   0  -6 -20   41.04    7.48
   0   6 -20   44.76    6.17
   0   6 -20   40.37    5.26
   0   6 -20   41.48    5.62
   0  -6  21  114.81   10.93
   0   6  21  102.30   14.44
   0  -6  21  112.88   11.40
   0  -6 -21  110.04   13.56
   0   6 -21  102.35   10.23
   0   6 -21  103.07    9.64
   0   6 -21  105.64   10.75
   0  -6  22   39.48    4.92
   0  -6  22   38.25    4.14
   0   6  22   36.60    7.28
   0   6 -22   37.22    4.97
   0  -6 -22   43.15    6.43
   0   6 -22   39.29    5.02
   0   6 -22   40.94    5.36
   0  -6  23   17.37    3.26
   0   6  23   14.03    4.78
   0  -6  23   19.39    3.03
   0  -6 -23   17.59    3.94
   0   6 -23   17.20    2.97
   0   6 -23   18.60    3.30
   0   6 -23   15.44    2.71
   0   6  24    0.15    1.77
   0  -6  24    4.14    1.25
   0  -6  24    2.96    1.35
   0   6 -24    2.06    1.25
   0  -6 -24    0.92    1.10
   0   6 -24    3.34    1.24
   0  -6  25   17.12    2.94
   0   6  25   10.52    3.62
   0  -6  25   13.40    2.47
   0   6 -25   14.75    2.66
   0   6 -25   14.50    2.44
   0  -6 -25   15.91    3.09
   0   6  26    8.50    2.81
   0  -6  26   18.89    2.91
   0  -6 -26   15.08    2.85
   0   6 -26   14.93    2.41
   0   7   0    0.00    0.57
   0  -7   0    1.54    0.59
   0   7   0    2.45    0.71
   0   7   0    0.21    0.54
   0   7   0    0.07    0.68
   0   7   0   -0.07    0.56
   0   7   1   32.15    3.09
   0   7   1   34.47    2.95
   0   7   1   31.56    3.41
   0  -7   1   31.63    2.66
   0  -7   1   35.68    2.65
   0   7   1   34.59    3.71
   0   7   1   34.39    3.18
   0   7  -1   32.84    3.09
   0   7  -1   27.65    3.24
   0   7  -1   33.34    3.16
   0  -7  -1   31.19    3.21
   0   7  -1   34.01    3.56
   0  -7  -1   35.02    2.97
   0   7  -1   31.08    2.81
   0   7   2  151.02   11.62
   0  -7   2  142.64    7.77
   0   7   2  142.40   10.48
   0   7   2  132.88    9.23
   0   7   2  132.25   10.05
   0  -7   2  130.97    8.95
   0  -7   2  128.34    7.92
   0   7   2  125.54    8.47
   0  -7  -2  127.78    9.35
   0   7  -2  123.89    7.89
   0   7  -2  135.74    9.66
   0   7  -2  134.36    9.21
   0   7  -2  130.68   11.36
   0   7  -2  128.20    9.56
   0   7  -2  137.92   10.79
   0  -7  -2  150.11    9.16
   0   7   3  102.44    8.78
   0   7   3   99.87    7.96
   0  -7   3   85.19    5.64
   0   7   3   88.92    7.07
   0   7   3   92.64    7.43
   0   7   3  101.84    7.38
   0  -7   3   95.36    6.15
   0  -7   3   95.25    5.56
   0   7  -3   91.44    7.72
   0   7  -3  100.52    8.31
   0  -7  -3   95.60    6.39
   0   7  -3   90.19    5.96
   0   7  -3  100.58    7.91
   0  -7  -3   94.14    7.21
   0   7  -3   89.07    6.87
   0   7  -3   88.05    6.68
   0   7   4    3.56    0.91
   0  -7   4    2.61    0.82
   0  -7   4    1.82    0.75
   0   7   4    1.25    1.07
   0   7   4    2.95    0.88
   0  -7   4    3.13    0.61
   0   7   4    3.54    1.22
   0   7   4    2.21    1.10
   0   7  -4    0.60    0.86
   0   7  -4    2.49    0.63
   0   7  -4    2.25    0.73
   0  -7  -4    3.32    0.90
   0   7  -4    3.76    1.10
   0  -7  -4    2.12    0.73
   0   7  -4    4.68    1.16
   0   7  -4    2.09    1.11
   0   7   5    0.51    0.64
   0  -7   5   -0.06    0.34
   0  -7   5    0.03    0.30
   0  -7   5    0.04    0.29
   0  -7   5    0.08    0.30
   0   7   5    1.62    0.50
   0   7   5    1.34    0.45
   0   7  -5    0.05    0.60
   0   7  -5   -0.01    0.49
   0   7  -5    0.28    0.58
   0  -7  -5   -0.16    0.48
   0   7  -5    0.10    0.48
   0  -7  -5    0.02    0.54
   0   7  -5   -0.14    0.55
   0  -7   6    0.04    0.54
   0   7   6    3.85    0.74
   0   7   6    0.00    0.71
   0  -7   6    0.38    0.42
   0   7   6    0.25    0.64
   0   7   6    0.16    0.58
   0   7   6    0.76    0.65
   0  -7   6    0.13    0.49
   0   7  -6    0.38    0.57
   0   7  -6    0.40    0.76
   0   7  -6    0.00    0.61
   0   7  -6   -0.12    0.71
   0  -7  -6   -0.01    0.63
   0  -7  -6   -0.01    0.66
   0   7  -6    2.10    0.70
   0   7   7   11.39    2.36
   0  -7   7   10.48    1.39
   0  -7   7    8.36    1.50
   0   7   7    9.90    1.93
   0  -7   7    7.91    1.61
   0   7   7   10.71    2.16
   0   7   7    4.64    1.96
   0   7  -7    9.53    1.79
   0   7  -7    9.56    2.11
   0   7  -7    9.48    1.89
   0   7  -7    6.07    1.55
   0   7  -7    5.74    2.15
   0  -7  -7   11.69    2.15
   0  -7  -7    9.50    1.81
   0   7   8   94.73    8.58
   0   7   8  102.39   10.19
   0  -7   8   98.29    7.40
   0   7   8   99.75    9.77
   0  -7   8  101.99    7.67
   0  -7   8  108.06    7.24
   0   7   8   94.33    9.68
   0  -7  -8   99.79    8.47
   0   7  -8   94.70    8.92
   0   7  -8  106.26    7.27
   0   7  -8  101.42    7.75
   0   7  -8   83.65    8.05
   0   7  -8   94.60    8.77
   0  -7  -8   93.13    8.15
   0   7  -8   97.97    8.48
   0  -7   9   58.46    5.09
   0   7   9   56.90    6.55
   0   7   9   67.30    7.64
   0  -7   9   65.50    4.96
   0   7   9   64.95    6.40
   0   7   9   58.63    7.46
   0  -7   9   64.40    5.25
   0   7  -9   64.41    6.31
   0   7  -9   63.61    6.21
   0  -7  -9   63.31    6.28
   0   7  -9   65.51    5.21
   0   7  -9   64.68    6.79
   0   7  -9   63.72    6.95
   0  -7  -9   66.91    6.23
   0   7  -9   54.64    6.01
   0  -7  10   42.89    3.96
   0   7  10   37.67    5.10
   0  -7  10   43.87    4.26
   0  -7  10   44.95    3.96
   0   7  10   38.05    5.79
   0   7  10   45.62    5.93
   0   7  10   40.82    5.77
   0   7 -10   41.29    5.21
   0  -7 -10   42.32    4.18
   0  -7 -10   44.54    5.57
   0   7 -10   34.37    4.01
   0   7 -10   47.09    4.36
   0   7 -10   43.02    5.74
   0   7 -10   43.07    5.15
   0  -7  11  372.38   25.20
   0  -7  11  361.64   24.88
   0  -7  11  383.72   26.07
   0  -7  11  412.75   26.63
   0   7  11  387.55   35.34
   0   7  11  363.92   32.89
   0   7  11  373.11   32.88
   0   7  11  322.54   29.18
   0   7 -11  380.57   32.13
   0   7 -11  408.90   27.45
   0   7 -11  362.09   29.60
   0   7 -11  367.06   30.51
   0   7 -11  385.14   32.40
   0  -7 -11  358.91   27.29
   0  -7 -11  366.39   30.67
   0  -7  12   10.64    2.05
   0  -7  12    9.63    1.84
   0   7  12    6.66    2.37
   0   7  12    3.47    2.63
   0   7  12    8.94    2.58
   0   7  12    8.97    2.63
   0  -7  12    9.51    2.09
   0  -7  12    7.52    1.76
   0   7 -12    4.20    1.99
   0   7 -12    5.95    1.85
   0  -7 -12    6.53    2.19
   0  -7 -12    8.08    1.93
   0   7 -12    8.26    2.52
   0   7 -12    5.01    2.11
   0   7 -12    9.80    2.39
   0  -7  13   76.87    6.94
   0   7  13   74.67    8.88
   0  -7  13   75.59    7.83
   0   7  13   68.81    9.10
   0   7  13   67.45    9.28
   0  -7  13   83.26    7.64
   0   7  13   69.63    9.50
   0  -7  13   76.67    7.44
   0   7 -13   75.88    9.29
   0   7 -13   72.38    6.81
   0   7 -13   68.42    7.39
   0   7 -13   73.14    8.02
   0  -7 -13   72.43    9.31
   0   7 -13   76.09    8.35
   0  -7 -13   68.90    6.66
   0  -7  14   94.62    8.55
   0  -7  14   86.11    7.83
   0  -7  14   87.96    7.83
   0   7  14   71.26   10.45
   0  -7  14   82.04    8.34
   0   7  14   65.12    9.84
   0   7  14   80.02    9.35
   0   7  14   72.62    9.86
   0   7 -14   75.20    6.57
   0   7 -14   82.87    9.10
   0  -7 -14   77.43   10.24
   0   7 -14   67.95    7.61
   0  -7 -14   75.96    8.23
   0   7 -14   75.85    9.60
   0   7  15    4.37    2.38
   0  -7  15    3.42    1.86
   0   7  15    4.00    2.50
   0  -7  15    4.70    1.81
   0  -7  15    6.42    1.79
   0  -7  15    4.99    1.60
   0   7  15    6.63    2.06
   0   7  15    2.17    1.77
   0   7 -15    6.13    2.30
   0   7 -15    5.69    1.64
   0  -7 -15    5.18    2.21
   0  -7 -15    4.04    1.76
   0   7 -15    5.74    1.94
   0   7  16    0.51    1.70
   0  -7  16    1.77    1.16
   0  -7  16    0.27    1.13
   0   7  16    3.84    1.51
   0   7  16    0.14    1.09
   0   7  16    1.36    1.24
   0  -7  16    0.72    0.98
   0  -7 -16    0.68    1.39
   0   7 -16    2.02    0.81
   0   7 -16    0.57    1.19
   0   7 -16    0.34    1.01
   0   7 -16    3.91    1.40
   0  -7 -16    0.35    1.23
   0   7  17    3.60    2.13
   0  -7  17    4.50    1.52
   0   7  17    2.12    2.48
   0   7  17    1.43    2.74
   0  -7  17    4.28    1.90
   0   7 -17    3.73    1.51
   0   7 -17    4.18    1.81
   0   7 -17    5.89    1.98
   0  -7 -17    6.91    1.98
   0  -7 -17    5.66    2.43
   0   7 -17    3.60    1.45
   0   7  18   59.24   10.61
   0   7  18   59.68    8.79
   0  -7  18   65.86    5.89
   0  -7  18   78.98    8.42
   0  -7 -18   64.97    9.68
   0   7 -18   62.37    6.85
   0   7 -18   63.34    6.81
   0   7 -18   62.77    7.91
   0  -7  19    3.35    1.58
   0  -7  19    5.90    1.88
   0   7  19    3.33    2.09
   0   7  19    1.74    2.57
   0  -7 -19    3.11    2.31
   0   7 -19    3.81    1.91
   0   7 -19    4.81    1.76
   0   7 -19    3.10    1.53
   0   7  20   27.46    6.57
   0  -7  20   33.42    4.88
   0  -7  20   33.69    4.19
   0  -7 -20   28.27    6.04
   0   7 -20   30.08    4.08
   0   7 -20   32.58    3.68
   0   7 -20   35.16    5.03
   0  -7  21    0.55    1.08
   0  -7  21   -0.01    0.82
   0   7  21    3.49    1.15
   0   7  21    0.49    1.43
   0   7 -21    0.95    0.96
   0   7 -21    0.51    0.91
   0   7 -21   -0.11    0.86
   0  -7 -21    0.74    0.89
   0   7  22    0.16    2.05
   0  -7  22    3.80    1.22
   0  -7  22    2.56    1.49
   0   7 -22    2.63    1.31
   0  -7 -22    3.93    1.81
   0   7 -22    3.17    1.35
   0   7 -22    2.74    1.34
   0   7  23    4.58    2.76
   0  -7  23    9.97    1.89
   0  -7  23    9.73    1.57
   0   7 -23    9.30    1.80
   0   7 -23   -0.02    1.67
   0  -7 -23   11.85    2.54
   0   7 -23   10.32    2.06
   0   7  24    0.52    1.78
   0  -7  24    6.76    1.44
   0  -7  24    4.30    1.26
   0  -7 -24    4.82    1.69
   0   7 -24   -0.02    1.24
   0   7 -24    3.27    1.25
   0  -7  25   33.25    4.00
   0  -7 -25   30.99    4.10
   0   8   0  347.80   25.93
   0   8   0  330.15   26.14
   0   8   0  335.16   23.36
   0  -8   0  330.83   23.22
   0   8   0  330.02   22.49
   0  -8   0  347.27   20.59
   0   8   0  330.63   21.70
   0  -8   1    5.21    1.06
   0   8   1    7.49    1.37
   0   8   1    2.30    1.41
   0  -8   1    3.99    0.99
   0   8   1    6.15    1.64
   0  -8   1    4.24    0.92
   0   8   1    5.94    1.61
   0   8   1    4.72    1.22
   0  -8  -1    5.25    1.22
   0  -8  -1    4.30    1.40
   0   8  -1    4.21    1.12
   0   8  -1    5.79    1.26
   0   8  -1    5.45    1.62
   0   8  -1    4.11    1.11
   0   8  -1    2.03    1.22
   0   8   2   94.61    8.41
   0  -8   2   93.62    6.25
   0   8   2  102.32    9.29
   0  -8   2   91.17    6.58
   0   8   2   86.79    7.20
   0   8   2   88.86    7.29
   0  -8   2   90.11    6.17
   0   8   2   96.48    8.03
   0   8  -2   83.23    6.44
   0  -8  -2   90.32    7.79
   0   8  -2   94.40    8.70
   0   8  -2   86.95    7.33
   0   8  -2   93.41    8.90
   0  -8  -2   98.56    6.71
   0   8  -2   97.78    8.71
   0   8  -2   88.33    7.10
   0   8   3  218.51   17.69
   0  -8   3  200.62   11.65
   0   8   3  229.59   17.62
   0   8   3  205.64   14.84
   0   8   3  229.89   18.80
   0  -8   3  198.45   13.13
   0  -8   3  207.56   12.90
   0   8   3  208.54   15.30
   0  -8  -3  214.09   16.16
   0  -8  -3  232.75   14.82
   0   8  -3  224.72   17.50
   0   8  -3  222.21   16.08
   0   8  -3  184.85   12.40
   0   8  -3  213.24   17.51
   0   8  -3  204.95   14.01
   0   8  -3  218.97   18.01
   0  -8   4   32.77    2.86
   0  -8   4   34.07    2.88
   0   8   4   37.16    4.62
   0  -8   4   36.30    2.89
   0   8   4   33.33    3.60
   0  -8   4   33.95    2.94
   0   8   4   31.79    3.92
   0   8   4   34.37    3.68
   0   8   4   37.02    4.79
   0   8  -4   28.45    3.58
   0   8  -4   37.22    4.61
   0  -8  -4   33.91    4.12
   0   8  -4   36.63    3.66
   0   8  -4   35.04    4.39
   0   8  -4   34.02    4.26
   0  -8  -4   40.04    4.16
   0   8   5    2.94    1.49
   0   8   5    6.32    1.40
   0  -8   5    4.02    1.23
   0   8   5    4.98    1.53
   0  -8   5    4.72    1.05
   0   8   5    5.45    1.73
   0  -8   5    4.64    1.26
   0   8   5    7.23    1.57
   0  -8  -5    4.16    1.62
   0   8  -5    5.80    1.39
   0   8  -5    6.43    1.61
   0  -8  -5    4.35    1.52
   0   8  -5    2.68    1.32
   0   8  -5    3.76    1.68
   0   8  -5    4.32    1.72
   0   8   6   40.15    4.84
   0  -8   6   44.84    3.73
   0   8   6   40.71    5.18
   0  -8   6   38.45    3.61
   0   8   6   31.10    4.51
   0  -8   6   36.48    3.82
   0   8   6   43.62    6.11
   0   8  -6   37.84    4.73
   0   8  -6   39.84    4.41
   0  -8  -6   41.82    4.90
   0  -8  -6   42.97    4.78
   0   8  -6   41.49    4.95
   0   8  -6   30.25    4.04
   0   8  -6   39.51    5.04
   0   8   7    9.29    2.59
   0   8   7   11.98    3.08
   0   8   7    8.75    2.33
   0  -8   7   12.83    1.71
   0  -8   7    9.90    1.80
   0   8   7    6.60    2.21
   0  -8   7    8.30    1.84
   0  -8  -7   12.59    2.54
   0   8  -7   11.02    1.76
   0  -8  -7   11.02    2.40
   0   8  -7    6.15    2.06
   0   8  -7   10.76    2.07
   0   8  -7    9.67    2.38
   0   8  -7   10.53    1.80
   0  -8   8  119.36    9.34
   0   8   8  111.91   11.33
   0  -8   8  136.09    9.41
   0   8   8  127.59   12.58
   0   8   8  124.30   12.54
   0  -8   8  124.36    9.99
   0   8   8  116.98   11.71
   0   8  -8  128.25   11.04
   0   8  -8  111.03   10.74
   0   8  -8  119.95   11.89
   0  -8  -8  123.19   11.94
   0   8  -8  121.01   10.85
   0   8  -8  122.23   11.42
   0  -8  -8  113.63   10.44
   0   8   9   33.57    5.44
   0   8   9   38.03    5.66
   0  -8   9   39.68    4.17
   0  -8   9   40.03    3.83
   0  -8   9   37.89    4.10
   0   8   9   40.82    6.64
   0   8   9   41.37    5.88
   0   8  -9   45.06    5.17
   0   8  -9   41.28    5.56
   0   8  -9   42.85    5.45
   0  -8  -9   42.62    5.46
   0   8  -9   30.28    4.68
   0  -8  -9   39.94    4.13
   0   8  -9   40.84    5.68
   0  -8  10  272.30   18.44
   0   8  10  268.06   25.20
   0  -8  10  255.16   18.39
   0  -8  10  249.56   18.39
   0   8  10  254.68   24.36
   0   8  10  242.52   23.08
   0   8  10  264.56   25.89
   0  -8  10  261.63   19.77
   0   8 -10  258.25   22.95
   0   8 -10  257.00   22.81
   0  -8 -10  264.16   22.25
   0   8 -10  244.13   21.31
   0   8 -10  259.70   21.94
   0  -8 -10  246.57   21.44
   0  -8  11   54.73    5.75
   0   8  11   48.43    7.32
   0   8  11   62.54    6.98
   0  -8  11   63.86    5.92
   0   8  11   53.77    7.51
   0  -8  11   54.16    4.84
   0  -8  11   53.90    4.62
   0   8  11   47.15    7.14
   0   8 -11   55.80    6.94
   0  -8 -11   50.86    6.93
   0   8 -11   57.02    7.27
   0   8 -11   52.82    6.76
   0   8 -11   47.52    6.11
   0  -8 -11   51.10    6.97
   0   8  12   20.10    4.90
   0  -8  12   26.44    3.59
   0   8  12   22.23    4.87
   0  -8  12   26.53    3.50
   0  -8  12   29.24    3.57
   0  -8  12   25.54    4.00
   0   8  12   24.65    4.87
   0   8  12   27.12    4.87
   0  -8 -12   26.54    3.87
   0   8 -12   22.58    4.10
   0   8 -12   29.26    4.49
   0  -8 -12   25.29    4.71
   0   8 -12   28.30    4.60
   0   8 -12   18.00    3.82
   0  -8  13   25.43    3.73
   0  -8  13   27.56    3.71
   0   8  13   17.10    4.76
   0  -8  13   25.72    3.52
   0   8  13   19.50    4.89
   0   8  13   24.32    5.02
   0   8  13   26.19    4.91
   0   8 -13   18.20    3.55
   0   8 -13   24.55    4.35
   0  -8 -13   28.01    4.91
   0  -8 -13   26.13    4.60
   0   8 -13   21.32    3.90
   0   8 -13   26.63    4.45
   0   8  14    3.55    2.76
   0  -8  14    6.05    1.83
   0  -8  14    9.31    2.26
   0   8  14    6.27    1.95
   0   8  14    9.29    2.76
   0   8  14    6.18    3.05
   0  -8  14    8.60    2.16
   0   8 -14   15.59    2.65
   0   8 -14    3.28    1.84
   0   8 -14    8.88    2.38
   0  -8 -14    8.64    2.67
   0  -8 -14    8.92    2.63
   0   8 -14    4.21    1.78
   0  -8  15   14.11    2.99
   0   8  15   13.75    3.34
   0   8  15   13.32    3.58
   0   8  15    4.72    3.42
   0  -8  15   12.76    2.18
   0  -8  15   13.40    2.37
   0   8  15   10.00    4.17
   0   8 -15   13.83    2.43
   0  -8 -15   12.15    3.31
   0  -8 -15   11.96    3.61
   0   8 -15   11.30    2.55
   0   8 -15   13.32    2.96
   0   8  16   94.34   13.85
   0   8  16  111.15   12.94
   0  -8  16  121.90   11.73
   0  -8  16  112.77    9.84
   0   8  16  100.27   12.55
   0   8 -16  102.51    9.59
   0  -8 -16  101.54   13.37
   0   8 -16  112.88   12.51
   0   8 -16  105.72   11.64
   0  -8  17   37.76    4.18
   0  -8  17   39.81    4.41
   0   8  17   37.81    5.97
   0   8  17   31.11    6.40
   0   8 -17   31.56    4.39
   0   8 -17   34.71    5.25
   0  -8 -17   40.71    6.47
   0   8 -17   23.54    3.89
   0  -8  18   51.43    5.42
   0   8  18   40.36    6.46
   0  -8  18   59.22    6.73
   0   8  18   46.28    7.16
   0  -8 -18   50.79    8.12
   0   8 -18   50.70    6.54
   0   8 -18   55.99    6.90
   0   8  19    8.02    3.17
   0  -8  19   13.03    2.35
   0  -8  19   10.62    1.93
   0   8  19    0.33    2.53
   0  -8 -19   13.10    2.92
   0   8 -19   10.06    2.27
   0   8 -19    0.06    1.86
   0   8 -19   12.67    2.44
   0   8  20    3.83    3.29
   0  -8  20   18.17    2.58
   0   8  20   12.75    4.14
   0  -8  20   19.26    3.08
   0  -8 -20   18.12    3.97
   0   8 -20   17.60    3.10
   0   8 -20   17.39    2.89
   0   8  21    3.94    2.37
   0  -8  21    9.72    1.78
   0  -8  21    7.92    1.56
   0  -8 -21    5.21    2.29
   0   8 -21    0.91    1.65
   0   8 -21    7.76    1.74
   0  -8 -21    2.19    1.35
   0   8 -21    7.11    1.72
   0  -8  22   25.22    3.53
   0   8  22   15.45    4.15
   0  -8  22   22.11    2.91
   0   8 -22   24.36    3.33
   0  -8 -22   20.14    3.85
   0   8 -22   19.95    2.96
   0  -8  23    1.72    0.88
   0  -8  23    1.28    1.16
   0   8  23   -0.01    1.29
   0   8 -23    1.33    0.93
   0  -8 -23    2.43    1.11
   0   8 -23    1.30    0.65
   0  -8  24   14.87    2.38
   0   9   0   -0.25    0.40
   0   9   0   -0.12    0.55
   0  -9   0   -0.04    0.35
   0  -9   0   -0.05    0.37
   0   9   0    0.06    0.57
   0   9   0    0.36    0.41
   0  -9   0   -0.06    0.34
   0   9   1    1.39    1.27
   0  -9   1    2.82    0.82
   0   9   1    1.51    1.37
   0   9   1    0.33    1.05
   0  -9   1    2.18    0.86
   0   9   1    1.78    0.95
   0   9   1    1.30    1.02
   0  -9   1    2.88    1.00
   0  -9  -1    1.89    0.84
   0   9  -1    1.41    0.94
   0  -9  -1    0.74    1.03
   0   9  -1    2.77    0.97
   0   9  -1    0.42    0.95
   0   9  -1    3.48    0.96
   0  -9  -1    2.00    0.93
   0  -9   2    2.00    0.84
   0   9   2    2.77    1.33
   0   9   2    2.10    1.06
   0   9   2    4.69    1.42
   0   9   2    0.23    1.08
   0  -9   2    1.57    0.65
   0  -9   2    2.60    0.98
   0   9   2    1.11    1.08
   0   9  -2    0.10    0.96
   0   9  -2    3.33    1.40
   0  -9  -2    3.45    1.17
   0   9  -2    1.71    1.01
   0   9  -2    1.52    0.92
   0   9  -2    3.65    1.34
   0  -9  -2    2.53    1.00
   0   9   3   73.74    6.81
   0   9   3   81.37    8.49
   0  -9   3   70.85    6.29
   0   9   3   68.74    7.02
   0  -9   3   66.59    5.27
   0  -9   3   71.18    5.67
   0   9   3   70.00    8.71
   0  -9   3   73.53    6.22
   0   9   3   74.37    7.74
   0   9  -3   74.99    6.69
   0   9  -3   80.45    8.41
   0  -9  -3   79.83    7.38
   0   9  -3   74.99    7.88
   0  -9  -3   79.01    7.02
   0   9  -3   64.80    6.53
   0  -9   4   18.71    2.66
   0   9   4   23.66    3.66
   0  -9   4   19.39    2.64
   0  -9   4   18.04    2.17
   0   9   4   16.02    3.13
   0   9   4   17.27    3.04
   0   9   4   20.10    3.18
   0   9  -4   13.09    2.60
   0   9  -4   20.00    3.37
   0  -9  -4   20.46    2.41
   0   9  -4   16.91    2.69
   0  -9  -4   17.85    3.14
   0   9  -4   21.62    3.39
   0   9  -4   20.17    3.57
   0   9   5    7.58    2.35
   0  -9   5    5.45    1.44
   0  -9   5    4.74    0.99
   0   9   5    2.96    1.69
   0   9   5    6.09    2.04
   0   9   5    5.23    1.63
   0   9  -5    2.35    1.48
   0  -9  -5    5.79    1.79
   0   9  -5    5.98    1.54
   0   9  -5    4.67    1.88
   0  -9  -5    5.76    1.83
   0   9  -5    7.85    1.97
   0   9  -5    5.21    1.92
   0  -9   6   34.44    3.74
   0   9   6   34.61    5.01
   0   9   6   26.60    4.25
   0   9   6   37.84    5.69
   0   9   6   31.60    4.41
   0  -9   6   31.02    3.74
   0  -9  -6   35.38    4.58
   0   9  -6   35.32    4.97
   0   9  -6   34.31    4.28
   0  -9  -6   32.95    4.62
   0   9  -6   26.30    3.72
   0   9  -6   33.08    5.06
   0   9  -6   32.65    4.64
   0   9   7    7.14    1.93
   0  -9   7    9.33    1.93
   0   9   7   10.87    3.04
   0   9   7    7.63    2.27
   0  -9   7    9.25    1.77
   0   9   7    5.14    2.15
   0   9  -7    3.48    1.91
   0   9  -7    9.14    2.46
   0   9  -7   13.03    2.50
   0   9  -7    9.68    2.40
   0  -9  -7   10.28    2.34
   0  -9  -7    8.21    1.73
   0   9  -7   11.09    2.08
   0   9   8    6.07    2.64
   0   9   8    6.68    2.54
   0   9   8    7.46    2.96
   0   9   8    3.49    2.12
   0  -9   8    6.54    1.89
   0  -9   8    9.67    1.59
   0  -9  -8   10.76    2.37
   0   9  -8   10.34    2.45
   0   9  -8    8.91    2.29
   0   9  -8   11.33    2.03
   0   9  -8   10.40    2.53
   0  -9  -8    5.41    2.27
   0   9  -8    3.30    1.94
   0  -9   9   26.72    2.75
   0   9   9   31.90    5.62
   0  -9   9   25.09    2.60
   0   9   9   26.44    5.06
   0   9   9   25.57    4.58
   0   9   9   23.25    4.14
   0  -9   9   27.48    3.42
   0   9  -9   27.50    3.67
   0   9  -9   28.91    4.64
   0   9  -9   29.90    4.42
   0  -9  -9   28.10    3.53
   0  -9  -9   32.29    4.72
   0   9  -9   18.25    3.72
   0   9  10   36.59    6.17
   0  -9  10   35.26    4.00
   0  -9  10   31.47    4.01
   0   9  10   36.56    6.56
   0  -9  10   38.33    4.29
   0   9  10   32.68    5.70
   0   9  10   28.75    5.36
   0  -9 -10   36.67    5.78
   0   9 -10   35.57    4.23
   0   9 -10   35.36    5.46
   0  -9 -10   36.99    5.45
   0   9 -10   35.21    4.30
   0   9 -10   26.38    4.49
   0  -9  11  132.62   10.98
   0   9  11  134.27   15.71
   0  -9  11  134.22   11.50
   0   9  11  130.99   14.40
   0   9  11  107.91   14.51
   0   9  11  124.60   13.69
   0  -9  11  151.98   12.51
   0   9 -11  120.05   12.55
   0   9 -11  134.27   13.20
   0  -9 -11  140.41   14.58
   0   9 -11  137.31   14.06
   0   9 -11  134.42   13.77
   0  -9 -11  133.57   14.04
   0   9  12   22.12    4.52
   0   9  12   26.11    5.06
   0  -9  12   27.22    3.85
   0  -9  12   29.09    3.64
   0   9  12   18.28    4.48
   0  -9  12   25.03    3.74
   0  -9 -12   26.09    5.14
   0   9 -12   27.67    4.32
   0  -9 -12   25.39    4.52
   0   9 -12   25.05    4.31
   0   9 -12   17.35    3.59
   0   9 -12   24.25    4.32
   0  -9  13   96.71    9.04
   0   9  13   83.31   11.67
   0   9  13   91.17   11.25
   0  -9  13   97.02    9.55
   0   9  13  109.52   11.88
   0  -9 -13   86.12   10.97
   0   9 -13   97.31   11.18
   0   9 -13   94.22   10.24
   0   9 -13  103.47   10.55
   0   9  14   42.72    5.54
   0   9  14   35.30    6.86
   0  -9  14   49.04    5.40
   0   9  14   41.06    6.96
   0  -9  14   51.60    5.61
   0  -9 -14   45.57    6.95
   0   9 -14   47.11    6.79
   0   9 -14   45.82    6.62
   0   9  15    9.86    3.57
   0  -9  15   14.24    2.86
   0  -9  15   13.24    2.51
   0   9  15   14.09    3.35
   0   9  15   12.35    3.40
   0  -9 -15   11.08    3.52
   0   9 -15   11.96    2.98
   0   9 -15   14.53    3.18
   0   9  16   30.43    6.09
   0  -9  16   37.25    4.26
   0  -9  16   43.45    5.04
   0   9  16   34.03    5.86
   0  -9 -16   35.04    6.33
   0   9 -16   37.80    5.32
   0   9 -16   38.73    5.54
   0   9  17    0.00    1.45
   0  -9  17   -0.02    1.01
   0  -9  17    2.87    0.80
   0   9  17   -0.06    1.30
   0   9 -17    2.73    1.08
   0  -9 -17    0.08    1.29
   0   9 -17   -0.40    0.79
   0  -9  18    0.44    0.91
   0   9  18   -0.26    1.30
   0  -9  18    2.36    1.11
   0   9  18    0.03    1.84
   0   9 -18    2.73    1.22
   0  -9 -18    3.31    1.40
   0   9 -18    0.81    1.20
   0  -9 -18    2.05    1.08
   0   9  19    1.25    1.90
   0  -9  19    2.97    1.23
   0  -9  19    4.77    1.43
   0   9 -19    4.40    1.52
   0   9 -19    2.94    1.40
   0  -9 -19    4.70    1.86
   0  -9 -19    4.50    1.33
   0  -9  20    1.22    1.27
   0  -9  20    2.57    0.96
   0   9  20    0.33    1.59
   0  -9 -20    1.59    0.97
   0  -9 -20    5.17    1.62
   0   9 -20    2.14    1.22
   0   9 -20    3.69    1.13
   0   9  21    4.16    2.31
   0  -9  21   11.21    2.02
   0  -9  21    9.15    1.67
   0   9 -21    8.16    1.85
   0  -9 -21   10.03    2.36
   0   9 -21    9.57    2.21
   0  -9  22    4.87    1.58
   0  -9 -22    5.84    1.62
   0   9 -22    5.69    1.44
   0  10   0   84.30   10.23
   0  10   0   79.01    9.41
   0  10   0   71.75    7.19
   0 -10   0   69.04    6.61
   0 -10   0   75.65    6.52
   0 -10   0   78.44    7.74
   0 -10   1  212.00   14.48
   0 -10   1  188.18   15.03
   0  10   1  211.73   20.82
   0  10   1  184.60   15.18
   0 -10   1  195.86   15.53
   0 -10   1  163.47   13.44
   0  10   1  205.96   19.12
   0 -10  -1  206.21   14.95
   0 -10  -1  185.01   14.81
   0  10  -1  205.76   20.53
   0  10  -1  206.46   19.53
   0  10  -1  198.77   16.06
   0 -10  -1  200.65   16.41
   0 -10   2  152.02   12.49
   0  10   2  167.53   15.67
   0  10   2  152.37   17.10
   0 -10   2  148.54   10.73
   0 -10   2  141.96   12.44
   0 -10  -2  150.62   13.23
   0  10  -2  160.92   15.49
   0  10  -2  152.87   16.27
   0 -10  -2  155.85   13.09
   0 -10  -2  156.36   12.28
   0  10  -2  140.03   12.06
   0 -10   3    0.33    0.95
   0 -10   3   -0.07    0.98
   0  10   3    4.95    1.58
   0  10   3   -0.01    1.04
   0 -10  -3    2.15    1.06
   0 -10  -3    2.12    1.04
   0 -10  -3    1.75    0.92
   0  10  -3    0.92    0.94
   0  10  -3    0.13    0.94
   0  10  -3    4.61    1.36
   0  10   4   16.38    3.40
   0  10   4    7.87    2.63
   0 -10   4   13.53    2.47
   0 -10   4   13.37    2.30
   0  10   4   15.21    4.06
   0 -10  -4   15.11    2.52
   0  10  -4   13.65    2.70
   0  10  -4   17.31    3.42
   0  10  -4   16.95    3.52
   0 -10  -4   13.64    2.83
   0 -10  -4   16.66    2.89
   0  10   5   53.53    7.21
   0 -10   5   53.22    5.28
   0  10   5   41.84    5.68
   0  10   5   49.67    8.27
   0 -10   5   50.75    5.38
   0  10  -5   53.60    7.16
   0  10  -5   49.20    7.03
   0 -10  -5   56.59    6.28
   0  10  -5   50.47    5.81
   0 -10  -5   49.41    6.02
   0  10  -5   56.55    6.44
   0  10   6    0.28    1.43
   0  10   6    2.02    1.33
   0 -10   6    4.46    1.26
   0  10   6    4.60    2.19
   0 -10   6    2.56    0.96
   0  10  -6    4.86    1.77
   0  10  -6    5.16    1.66
   0 -10  -6    2.42    1.60
   0 -10  -6    2.62    1.58
   0  10  -6    2.67    1.60
   0  10  -6    2.65    1.37
   0 -10   7    3.75    1.53
   0  10   7    3.41    2.01
   0 -10   7    5.02    1.34
   0  10   7    0.86    1.72
   0  10   7    4.87    2.37
   0  10  -7    4.27    2.01
   0  10  -7    3.82    1.36
   0  10  -7    5.74    1.55
   0  10  -7    3.61    1.72
   0 -10  -7    4.02    1.79
   0 -10  -7    3.28    1.80
   0  10   8  151.60   15.17
   0 -10   8  153.71   12.11
   0 -10   8  142.14   11.42
   0 -10   8  136.60   12.22
   0  10   8  144.06   17.55
   0  10   8  148.35   16.20
   0 -10  -8  150.94   14.97
   0  10  -8  154.04   15.63
   0 -10  -8  152.16   14.97
   0  10  -8  153.69   15.63
   0  10  -8  152.13   14.44
   0  10   9   11.17    3.58
   0  10   9   10.71    3.08
   0  10   9    6.57    2.76
   0 -10   9   11.25    2.06
   0 -10   9   10.62    1.95
   0  10  -9   13.78    2.82
   0  10  -9    8.63    2.90
   0 -10  -9   11.33    2.90
   0  10  -9   11.01    2.96
   0  10  10   15.13    3.77
   0 -10  10   20.00    3.08
   0 -10  10   18.91    2.88
   0  10  10   22.21    4.72
   0  10  10   17.87    4.25
   0  10 -10   18.94    4.14
   0  10 -10   18.12    3.69
   0  10 -10   21.91    3.77
   0 -10 -10   19.95    3.93
   0  10  11   34.63    6.79
   0  10  11   34.33    6.27
   0  10  11   31.23    5.57
   0 -10  11   43.89    4.79
   0 -10  11   40.57    3.88
   0  10 -11   40.66    4.94
   0  10 -11   39.71    5.58
   0  10 -11   40.60    5.43
   0 -10 -11   38.07    4.76
   0 -10  12    6.34    1.97
   0 -10  12   10.16    1.79
   0  10  12    4.68    2.62
   0  10  12    3.44    2.95
   0  10  12    5.98    2.78
   0 -10 -12    5.76    2.37
   0  10 -12    6.04    2.44
   0  10 -12    7.32    2.20
   0  10 -12    6.57    2.20
   0  10  13    9.26    3.22
   0 -10  13   11.85    2.11
   0  10  13    5.29    2.91
   0  10  13   12.11    3.22
   0 -10  13   11.22    2.38
   0  10 -13    8.56    2.50
   0 -10 -13   12.05    3.11
   0  10 -13   10.17    2.86
   0  10 -13   12.03    2.82
   0 -10  14    2.12    0.69
   0  10  14   -0.34    1.08
   0  10  14    0.02    1.00
   0 -10  14    0.02    0.74
   0  10  14    0.05    1.05
   0 -10 -14   -0.03    1.00
   0  10 -14    0.15    0.88
   0  10 -14   -0.27    0.96
   0 -10  15    1.77    0.98
   0  10  15   -0.44    1.45
   0  10  15    0.08    1.63
   0 -10  15    3.71    1.14
   0  10  15    0.16    1.49
   0  10 -15    5.28    1.35
   0  10 -15    1.13    1.31
   0 -10 -15    2.62    1.39
   0 -10 -15    2.81    1.53
   0 -10  16   12.43    1.91
   0  10  16   -0.01    2.64
   0  10  16    6.25    2.80
   0  10  16   -0.95    2.54
   0 -10  16   14.77    2.36
   0 -10 -16   10.34    2.89
   0  10 -16   15.26    2.57
   0 -10 -16   16.11    2.38
   0  10 -16   14.55    2.56
   0 -10  17    2.83    0.95
   0  10  17    0.02    1.44
   0 -10  17    3.56    1.08
   0  10  17   -0.29    1.39
   0 -10 -17    2.42    1.35
   0 -10 -17    2.22    1.12
   0  10 -17    2.70    1.21
   0  10 -17    0.51    1.12
   0 -10  18    7.00    1.60
   0 -10  18    5.58    1.39
   0 -10 -18    6.64    1.58
   0  10 -18    4.75    1.65
   0  10 -18    6.43    1.62
   0 -10 -18    6.25    2.11
   0 -10  19    0.42    0.82
   0 -10  19    0.04    0.72
   0  10 -19    0.49    0.88
   0 -10 -19    2.35    0.76
   0  10 -19    0.32    0.82
   0 -10 -19    2.97    1.04
   0 -10  20    5.37    1.24
   0 -10 -20    1.89    1.07
   0  10 -20    4.10    1.18
   0  10 -20    5.10    1.41
   0 -10 -20    6.27    1.54
   0  11   0   -0.07    0.75
   0 -11   0   -0.21    0.52
   0 -11   0    0.09    0.50
   0  11   0   -0.27    0.88
   0  11   1   16.96    4.44
   0 -11   1   17.72    2.43
   0 -11   1   15.10    2.66
   0  11   1   15.82    3.73
   0  11  -1   17.43    3.80
   0 -11  -1   15.87    2.54
   0 -11  -1   18.26    2.79
   0  11  -1   14.93    4.12
   0  11   2   11.47    3.06
   0 -11   2    7.83    1.97
   0  11   2   10.68    2.61
   0  11  -2    7.45    2.31
   0  11  -2   10.81    3.09
   0 -11  -2   12.58    2.11
   0 -11  -2   10.72    2.26
   0  11  -2   13.62    2.99
   0  11   3   21.02    5.09
   0 -11   3   20.75    2.82
   0  11   3   20.50    4.25
   0  11  -3   20.80    4.12
   0 -11  -3   20.30    3.21
   0  11  -3   19.47    3.34
   0 -11  -3   22.27    3.09
   0  11  -3   17.11    4.21
   0  11   4    3.04    1.56
   0  11   4    3.46    1.92
   0 -11   4    1.49    1.02
   0  11  -4    3.33    1.62
   0  11  -4    0.84    1.20
   0 -11  -4    0.91    1.20
   0  11  -4    1.64    1.55
   0 -11  -4    2.09    1.12
   0 -11   5   15.20    2.50
   0  11   5   17.02    4.46
   0  11   5   18.04    3.62
   0  11  -5   15.45    3.59
   0 -11  -5   17.11    2.95
   0  11  -5   16.59    3.67
   0  11  -5   13.39    2.08
   0 -11  -5   15.13    2.98
   0  11   6    0.71    1.40
   0 -11   6    3.20    0.90
   0  11   6    0.02    1.77
   0 -11   6    1.25    0.92
   0 -11  -6    0.67    1.13
   0  11  -6    0.43    1.44
   0 -11  -6    1.23    1.13
   0  11  -6    0.77    1.47
   0  11   7   18.88    4.54
   0  11   7   18.14    3.85
   0 -11   7   13.46    2.67
   0 -11   7   16.09    2.46
   0  11  -7   16.45    3.75
   0  11  -7   17.13    3.75
   0 -11  -7   16.07    3.23
   0 -11  -7   16.95    3.11
   0 -11   8    3.54    1.50
   0  11   8    6.85    2.19
   0 -11   8    6.14    1.29
   0  11   8    5.60    2.45
   0  11  -8    0.29    1.62
   0 -11  -8    3.65    1.76
   0  11  -8    3.73    1.95
   0  11  -8    6.41    2.15
   0 -11  -8    4.07    1.75
   0  11   9   23.58    4.46
   0 -11   9   24.63    3.02
   0  11   9   21.63    4.01
   0 -11   9   24.03    3.37
   0  11  -9   23.03    4.14
   0  11  -9    6.88    3.51
   0 -11  -9   26.84    3.86
   0  11  -9   24.14    4.31
   0 -11  -9   26.87    3.77
   0 -11  10    1.40    1.14
   0  11  10    3.24    1.89
   0  11  10    4.10    1.66
   0 -11  10    2.57    1.12
   0 -11 -10    2.44    1.43
   0  11 -10    0.45    1.29
   0  11 -10    0.61    1.61
   0  11 -10    2.50    1.50
   0 -11 -10    3.94    1.52
   0  11  11   13.95    3.80
   0 -11  11   17.80    2.58
   0  11  11   22.74    4.47
   0 -11  11   18.66    2.78
   0  11 -11   15.27    3.04
   0 -11 -11   17.50    3.30
   0 -11 -11   20.39    3.70
   0  11 -11   16.13    3.53
   0  11 -11   17.37    3.48
   0  11  12   10.14    3.50
   0 -11  12   11.52    2.25
   0  11  12    9.10    2.96
   0 -11  12   13.22    2.14
   0 -11 -12   14.83    2.72
   0  11 -12   12.49    2.56
   0 -11 -12   13.44    2.95
   0  11 -12   10.29    2.65
   0  11 -12   10.75    3.00
   0 -11  13   14.66    2.31
   0 -11  13   17.34    2.52
   0  11  13   10.92    3.33
   0  11  13    0.23    3.27
   0  11 -13   15.20    3.04
   0 -11 -13   15.67    3.19
   0  11 -13   18.78    2.75
   0 -11 -13   17.02    2.96
   0  11  14    0.22    1.66
   0 -11  14    4.28    1.26
   0  11  14    0.55    1.76
   0 -11  14    2.72    1.16
   0  11 -14    1.70    1.36
   0 -11 -14    3.55    1.56
   0 -11 -14    2.70    1.41
   0  11 -14    4.31    1.31
   0  11  15    3.09    2.53
   0 -11  15    7.16    1.88
   0 -11  15   12.61    1.67
   0  11  15    2.70    2.53
   0 -11 -15   14.16    2.42
   0 -11 -15   13.51    2.76
   0  11 -15   13.14    2.28
   0  11 -15   14.50    2.27
   0 -11  16   10.96    1.76
   0 -11 -16   12.18    2.57
   0  11 -16   11.85    2.21
   0 -11 -16   13.38    2.27
   0  11 -16    9.91    2.13
   0 -11  17    0.13    0.93
   0 -11  17    2.32    0.86
   0  11 -17    2.31    1.06
   0 -11 -17    4.51    1.08
   0  11 -17    3.91    1.09
   0 -11 -17    2.51    1.27
   0  11 -18    6.99    1.51
   0 -11 -18    9.09    1.62
   0  11 -18    9.46    1.79
   0  12   0   16.62    3.25
   0  12   0   21.70    3.89
   0 -12   0   20.17    2.77
   0  12   1   62.65    9.01
   0 -12   1   60.37    5.84
   0  12   1   64.59    6.92
   0  12  -1   64.22    8.67
   0  12  -1   63.55    6.90
   0 -12  -1   71.78    6.42
   0 -12  -1   65.22    6.23
   0  12   2   18.06    3.76
   0  12   2   15.45    4.21
   0 -12   2   16.87    2.70
   0 -12  -2   16.44    2.79
   0  12  -2   19.22    3.88
   0  12  -2   17.98    3.10
   0 -12  -2   19.98    2.75
   0 -12   3   11.91    2.17
   0  12   3   12.04    3.18
   0  12   3   14.27    3.80
   0  12  -3   12.37    3.28
   0 -12  -3   10.91    2.20
   0 -12  -3   12.70    2.35
   0  12  -3   12.15    3.14
   0 -12   4    1.75    0.99
   0  12   4    1.85    1.14
   0  12   4   -0.19    1.82
   0 -12  -4    2.24    1.15
   0  12  -4    1.77    1.71
   0  12  -4    4.72    1.52
   0 -12  -4    2.30    1.08
   0  12   5    3.09    1.68
   0  12   5    1.98    1.93
   0 -12   5    1.94    0.98
   0  12  -5    3.15    1.69
   0 -12  -5    2.28    1.27
   0 -12  -5    3.03    1.27
   0  12  -5    2.98    1.65
   0 -12   6    0.81    0.92
   0  12   6    1.64    1.48
   0  12   6    1.79    1.74
   0  12  -6    1.62    1.37
   0 -12  -6    1.97    1.17
   0 -12  -6    2.77    1.23
   0  12  -6    3.40    1.53
   0  12   7    6.13    2.31
   0  12   7    6.59    2.76
   0 -12   7   -0.01    1.55
   0 -12   7    7.77    1.54
   0  12  -7    9.61    2.25
   0  12  -7    7.28    2.38
   0 -12  -7    9.18    1.88
   0 -12  -7    7.58    1.86
   0 -12   8    1.68    0.82
   0  12   8    4.26    1.28
   0 -12   8    0.85    0.77
   0  12   8    3.43    1.40
   0 -12  -8    0.02    1.05
   0  12  -8    0.07    1.18
   0  12  -8   -0.21    1.19
   0 -12  -8    0.12    1.00
   0  12   9   13.90    3.32
   0  12   9   16.35    3.92
   0 -12   9   15.34    2.38
   0 -12  -9   16.04    2.96
   0  12  -9   15.41    3.26
   0 -12  -9   15.06    2.70
   0  12  -9   13.44    3.12
   0  12  10    0.33    1.10
   0 -12  10    0.00    0.64
   0 -12  10    1.16    0.65
   0  12  10    4.20    1.17
   0 -12 -10    0.32    0.81
   0  12 -10   -0.24    0.89
   0  12 -10   -0.10    0.86
   0 -12 -10   -0.33    0.80
   0  12  11    0.08    2.07
   0 -12  11    0.03    1.20
   0 -12  11    5.63    1.46
   0  12  11    5.77    1.98
   0  12 -11    5.41    1.59
   0  12 -11    5.56    1.74
   0 -12 -11    5.79    1.60
   0 -12 -11    5.86    1.58
   0 -12  12    2.31    0.71
   0  12  12   -0.05    1.09
   0 -12  12    0.32    0.73
   0  12  12   -0.30    1.06
   0  12 -12    0.92    0.96
   0 -12 -12    0.81    0.90
   0 -12 -12    1.44    0.86
   0  12 -12    0.02    0.81
   0 -12  13    1.91    1.09
   0 -12  13    1.89    0.96
   0  12  13    0.03    1.45
   0  12  13    4.18    1.43
   0 -12 -13    2.70    1.19
   0 -12 -13    2.96    1.13
   0  12 -13    2.90    1.05
   0  12 -13    0.46    1.11
   0  12  14    0.04    0.98
   0 -12  14    0.40    0.67
   0  12 -14    3.10    0.83
   0  12 -14   -0.01    0.85
   0 -12 -14    1.83    0.86
   0 -12 -14    0.18    0.87
   0 -12 -15    0.22    0.77
   0  12 -15    1.81    0.77
   0  13   0    0.29    0.80
   0  13   0    0.11    0.71
   0 -13   0    0.12    0.50
   0  13   1    3.72    1.53
   0  13   1    3.08    1.67
   0 -13   1    2.45    1.05
   0  13  -1    1.47    1.54
   0  13  -1    4.05    1.79
   0 -13  -1    2.96    1.12
   0  13   2    4.35    1.83
   0 -13   2    2.74    1.09
   0  13   2    2.64    1.59
   0 -13  -2    2.88    1.09
   0  13  -2    3.51    1.83
   0  13  -2    4.05    1.64
   0  13   3   -0.37    0.93
   0  13   3    1.37    1.08
   0 -13   3    0.08    0.55
   0  13  -3    0.21    1.00
   0 -13  -3    0.23    0.59
   0  13  -3    2.65    0.90
   0 -13  -3   -0.05    0.77
   0  13   4    4.07    1.74
   0 -13   4    1.93    0.88
   0  13   4    3.44    1.48
   0 -13  -4    1.63    0.99
   0  13  -4    3.85    1.41
   0 -13  -4    1.33    1.24
   0  13  -4    3.95    1.55
   0  13   5    5.02    2.20
   0  13   5    5.71    1.98
   0 -13   5    3.83    1.33
   0  13  -5    7.51    2.05
   0 -13  -5    3.97    1.43
   0  13  -5    6.17    1.96
   0 -13  -5    6.05    1.71
   0  13   6    3.22    1.20
   0 -13   6    0.29    0.79
   0  13   6    0.27    1.07
   0  13  -6    0.66    1.11
   0 -13  -6    0.23    0.81
   0  13  -6    3.08    1.14
   0 -13  -6    0.40    0.79
   0  13   7    0.69    1.28
   0  13   7    0.66    1.14
   0 -13   7    0.13    0.83
   0  13  -7    1.09    1.11
   0  13  -7    3.81    1.12
   0 -13  -7    0.84    0.88
   0 -13  -7    1.69    0.88
   0  13   8    4.93    1.68
   0  13   8    0.19    1.37
   0 -13   8    2.62    1.01
   0 -13  -8    3.38    1.17
   0  13  -8    3.08    1.48
   0  13  -8    2.50    1.46
   0 -13  -8    3.90    1.18
   0  13   9    0.11    1.02
   0  13   9    1.53    1.15
   0 -13  -9    0.51    0.79
   0 -13  -9    2.45    0.86
   0  13  -9    0.64    0.98
   0  13  -9    0.77    0.99
   0  13  10    4.11    1.79
   0  13  10    0.09    1.80
   0  13 -10    5.53    1.59
   0 -13 -10    7.04    1.40
   0  13  11    3.93    1.41
   0  13 -11    2.29    1.19
   0 -13 -11    2.60    1.11
   0  13 -12    4.43    1.28
   0  14   0    4.01    1.44
   0  14   0    3.01    1.64
   0  14   1    3.60    1.52
   0  14   1    4.62    1.79
   0  14  -1    5.17    1.50
   0  14  -1    2.54    1.69
   0  14   2    1.29    1.00
   0  14   2    0.48    0.87
   0  14  -2    0.55    0.92
   0  14  -2    0.26    0.88
   0  14   3    2.72    1.39
   0  14   3    3.68    1.68
   0  14  -3    4.50    1.44
   0  14  -3    1.50    1.86
   0  14   4   -0.13    0.83
   0  14   4    0.09    1.01
   0  14  -4    0.32    0.84
   0  14  -4    2.10    0.88
   0  14   5    1.59    1.18
   0  14  -5    0.68    0.99
   0  14  -6    6.43    1.72
   1   0 -28   -0.01    1.52
  -1   0  28    8.23    1.71
   1   0 -27    3.98    2.25
  -1   0  27    9.99    2.81
   1   0 -26    0.29    0.69
  -1   0  26   -0.05    0.83
   1   0 -25    2.66    1.61
  -1   0  25    1.58    1.56
   1   0 -24    0.24    0.81
  -1   0  24   -0.33    0.85
  -1   0  24   -0.43    0.85
   1   0 -23   13.75    3.19
  -1   0  23   12.64    3.31
  -1   0  23   11.18    3.42
   1   0 -22    0.08    0.78
   1   0 -22    0.29    0.85
  -1   0  22   -0.01    0.84
  -1   0  22    0.22    0.86
  -1   0  22    0.09    0.79
   1   0 -21  358.44   32.87
   1   0 -21  364.83   28.66
   1   0 -21  399.15   32.21
  -1   0  21  386.70   35.77
  -1   0  21  369.73   34.60
  -1   0  21  387.88   32.09
   1   0 -20    0.02    1.13
   1   0 -20    0.29    0.80
   1   0 -20   -0.60    1.05
  -1   0  20    0.58    0.80
  -1   0  20    3.17    0.95
  -1   0  20    0.30    1.07
   1   0 -19  173.68   13.70
   1   0 -19  169.33   14.23
   1   0 -19  162.80   15.32
  -1   0  19  171.80   16.24
  -1   0  19  175.01   13.86
  -1   0  19  155.23   14.74
   1   0 -18    0.00    0.78
   1   0 -18    0.16    0.64
   1   0 -18    0.04    0.78
   1   0 -18    0.02    0.57
  -1   0  18    0.18    0.76
  -1   0  18    2.58    0.82
  -1   0  18    0.06    0.66
   1   0 -17   67.42    6.35
   1   0 -17   64.98    7.10
   1   0 -17   69.24    5.77
   1   0 -17   64.81    6.89
  -1   0  17   71.59    6.90
  -1   0  17   69.14    7.32
  -1   0  17   70.99    6.47
   1   0 -16    0.08    0.53
   1   0 -16    1.69    0.57
   1   0 -16   -0.15    0.63
   1   0 -16   -0.32    0.78
  -1   0  16   -0.09    0.72
  -1   0  16    0.26    0.58
  -1   0  16    1.39    0.75
   1   0 -15 1486.90   95.86
   1   0 -15 1454.35   93.70
   1   0 -15 1523.42   97.72
   1   0 -15 1493.24   99.36
   1   0 -15 1468.98   88.65
  -1   0  15 1502.03   91.73
  -1   0  15 1543.62  100.09
  -1   0  15 1516.80   91.15
   1   0 -14   -0.08    0.36
   1   0 -14   -0.02    0.45
   1   0 -14   -0.07    0.40
   1   0 -14    0.02    0.46
   1   0 -14   -0.03    0.41
  -1   0  14   -0.03    0.30
  -1   0  14    0.38    0.39
  -1   0  14    0.11    0.34
   1   0 -13  241.27   15.79
   1   0 -13  228.43   16.06
   1   0 -13  238.76   15.88
   1   0 -13  240.96   16.00
  -1   0  13  253.00   14.73
  -1   0  13  241.70   15.75
   1   0 -12    0.09    0.43
   1   0 -12    0.00    0.59
   1   0 -12    0.34    0.59
  -1   0  12    1.54    0.47
   1   0 -11  246.71   15.07
   1   0 -11  267.45    8.48
  -1   0  11  284.73   15.19
   1   0 -10    0.23    0.36
   1   0 -10    0.08    0.11
  -1   0  10    0.08    0.35
   1   0  -9  206.55   11.22
   1   0  -9  201.97    6.16
  -1   0   9  207.31   10.00
   1   0  -8    2.93    0.53
  -1   0   8   -0.07    0.44
   1   0  -7   90.39    4.66
   1   0  -7   92.87    2.63
  -1   0   7   93.18    4.28
   1   0  -6    1.11    0.37
  -1   0   6    0.85    0.34
   1   0  -5  960.59   21.50
   1   0  -5 1141.39   37.67
  -1   0   5 1108.97   33.43
   1   0  -4    0.05    0.07
   1   0  -4    0.12    0.17
  -1   0   4   -0.06    0.12
   1   0  -3 1332.91   38.34
   1   0  -3 1255.27   27.16
  -1   0   3 1171.26   30.65
   1   0  -2    0.36    0.10
  -1   0   2    0.50    0.09
   1   0   1 1930.38   48.56
   1   0   1 2110.05   53.32
   1   0   1 1829.88   34.36
   1   0   1 1969.29   44.49
   1   0   2    0.38    0.09
   1   0   2    0.44    0.12
   1   0   3 1915.34   52.09
   1   0   3 1931.59   57.42
   1   0   3 2370.90   56.10
   1   0   4    0.44    0.15
   1   0   4    0.09    0.21
   1   0   4    0.71    0.22
   1   0   5 2773.10   94.57
   1   0   5 2936.61   98.28
   1   0   5 2938.16   97.42
   1   0   6    0.69    0.31
   1   0   6    0.43    0.28
  -1   0  -6    0.15    0.39
   1   0   7 2156.64   79.36
   1   0   7 2127.50   83.96
  -1   0  -7 2468.91   92.49
   1   0   8    0.02    0.25
   1   0   8    0.07    0.19
  -1   0  -8    0.16    0.30
   1   0   9   29.42    1.88
   1   0   9   32.49    1.97
  -1   0  -9   33.92    2.47
   1   0  10    0.19    0.37
  -1   0 -10    0.06    0.19
  -1   0 -10    0.26    0.26
   1   0  11 1442.39   77.58
  -1   0 -11 1494.71   76.09
  -1   0 -11 1510.96   55.86
   1   0  12    2.02    0.65
   1   0  12    0.08    0.51
   1   0  12    0.26    0.29
   1   0  12    0.10    0.41
  -1   0 -12    1.34    0.29
  -1   0 -12   -0.11    0.43
   1   0  13  230.93   13.82
   1   0  13  237.71   15.14
   1   0  13  213.90   15.31
   1   0  13  240.15   15.95
  -1   0 -13  246.93   15.51
  -1   0 -13  257.40   10.99
   1   0  14    0.04    0.52
   1   0  14    1.84    0.49
   1   0  14    0.00    0.48
   1   0  14    2.61    0.57
  -1   0 -14    0.02    0.60
  -1   0 -14   -0.03    0.37
   1   0  15   10.70    2.34
   1   0  15   14.48    2.16
   1   0  15    9.84    1.66
   1   0  15   13.90    2.44
  -1   0 -15   13.94    2.21
  -1   0 -15   16.31    1.34
   1   0  16    0.01    0.59
   1   0  16   -0.10    0.61
   1   0  16    2.41    0.84
   1   0  16    0.97    0.54
  -1   0 -16    0.23    0.76
   1   0  17  700.51   53.02
   1   0  17  671.85   52.81
   1   0  17  709.75   49.59
   1   0  17  695.05   55.38
  -1   0 -17  751.73   52.82
   1   0  18    0.07    0.65
   1   0  18    2.45    0.91
   1   0  18   -0.02    0.98
   1   0  18    0.23    0.90
  -1   0 -18   -0.06    0.87
   1   0  19   68.81    7.71
   1   0  19   65.75    7.78
   1   0  19   57.55    7.69
   1   0  19   59.37    6.39
  -1   0 -19   64.11    6.82
   1   0  20    0.35    1.03
   1   0  20    0.01    0.75
   1   0  20   -0.06    1.00
   1   0  20    2.98    1.07
  -1   0 -20    0.06    0.88
  -1   0 -20    0.01    0.83
   1   0  21   62.45    8.45
   1   0  21   63.20    8.10
   1   0  21   57.53    8.76
   1   0  21   46.15    6.10
  -1   0 -21   57.02    5.77
  -1   0 -21   57.94    7.07
   1   0  22   -0.65    0.85
   1   0  22    0.32    0.80
   1   0  22   -0.01    0.60
  -1   0 -22   -0.09    0.69
   1   0  23   46.34    7.16
   1   0  23   36.16    5.39
   1   0  23   45.83    5.70
  -1   0 -23   45.14    5.96
   1   0  24    0.34    1.00
   1   0  24    1.02    0.96
   1   0  24    0.08    0.84
  -1   0 -24   -0.07    0.78
   1   0  25    1.52    1.24
   1   0  25    0.13    0.99
   1   0  25    1.04    1.30
  -1   0 -25    0.66    0.94
   1   0  26    0.53    0.74
   1   0  26   -0.01    0.79
  -1   0 -26   -0.13    0.64
   1   0  27   12.35    2.73
   1   0  27   13.06    2.75
  -1   0 -27    7.52    2.37
   1   0  28    0.15    0.71
   1   0  28    0.00    0.69
   1   0  28    0.19    0.70
   1  -1 -28    2.17    0.97
   1   1 -28    0.16    0.95
  -1  -1  28   -0.02    1.00
   1  -1 -27    0.13    0.58
   1   1 -27   -0.16    0.65
  -1  -1  27    0.28    0.68
  -1   1  27   -0.07    0.64
   1  -1 -26    3.51    1.20
   1   1 -26    0.43    1.27
  -1   1  26    0.50    1.34
  -1  -1  26    0.77    0.84
   1   1 -25   28.72    4.98
   1  -1 -25   28.46    4.53
  -1  -1  25   29.89    5.05
  -1  -1  25   34.44    5.18
  -1   1  25   28.96    5.63
   1   1 -24    4.87    2.07
   1  -1 -24    3.30    1.96
  -1  -1  24    4.12    2.18
  -1  -1  24    5.16    1.99
  -1   1  24    3.45    2.29
   1   1 -23    5.19    1.98
   1   1 -23    3.46    1.60
   1  -1 -23    4.08    2.35
  -1  -1  23    5.19    1.84
  -1   1  23    4.33    2.25
  -1  -1  23    5.43    2.09
   1  -1 -22   21.96    4.44
   1   1 -22   22.02    4.24
   1   1 -22   21.69    3.40
  -1  -1  22   21.33    4.30
  -1   1  22   20.66    4.47
  -1   1  22   21.67    4.25
  -1  -1  22   25.27    3.96
   1  -1 -21   42.87    6.16
   1   1 -21   45.99    6.14
   1   1 -21   47.22    5.41
   1  -1 -21   45.64    6.67
   1   1 -21   45.08    6.29
  -1  -1  21   47.90    5.69
  -1   1  21   39.00    6.33
  -1  -1  21   45.00    6.05
  -1   1  21   41.79    5.46
  -1   1  21   50.19    6.34
  -1  -1  21   42.09    6.68
   1  -1 -20   92.91   10.43
   1   1 -20   90.17    9.43
   1   1 -20   97.50    9.06
   1  -1 -20   96.05   10.54
   1   1 -20   89.53   10.06
  -1  -1  20   88.56    9.93
  -1  -1  20   92.55    8.99
  -1   1  20   92.22   11.18
  -1   1  20   88.49    9.53
  -1  -1  20   98.21   10.00
  -1   1  20   95.49   10.12
   1  -1 -19    2.24    1.43
   1   1 -19    2.93    1.43
   1   1 -19    0.53    1.38
   1  -1 -19    0.90    1.53
   1   1 -19    5.14    1.33
  -1   1  19    3.50    1.54
  -1   1  19    0.58    1.15
  -1   1  19    3.07    1.56
  -1  -1  19    2.98    1.38
  -1  -1  19    3.46    1.31
  -1  -1  19    2.35    1.37
   1  -1 -18   44.37    4.84
   1  -1 -18   45.57    5.64
   1   1 -18   44.92    4.44
   1   1 -18   45.75    5.71
   1   1 -18   46.55    4.53
   1   1 -18   44.51    5.52
   1   1 -18   46.36    5.09
   1  -1 -18   43.74    4.35
  -1   1  18   51.69    6.04
  -1  -1  18   50.85    5.50
  -1   1  18   47.57    6.25
  -1   1  18   48.69    5.43
  -1  -1  18   43.46    4.80
  -1  -1  18   48.16    4.76
   1  -1 -17    2.25    1.06
   1  -1 -17    2.19    1.31
   1  -1 -17    2.31    1.05
   1  -1 -17    0.43    1.26
   1   1 -17    2.13    1.18
   1   1 -17    3.19    1.25
   1   1 -17    3.17    1.04
   1   1 -17    4.42    1.28
   1   1 -17    2.04    1.29
  -1  -1  17    2.51    1.15
  -1   1  17    6.24    1.31
  -1   1  17    4.01    1.40
  -1  -1  17    2.76    0.85
  -1   1  17    1.13    1.40
  -1  -1  17    3.17    1.04
  -1   1  17    0.07    1.05
   1   1 -16  124.97   10.15
   1   1 -16  108.14    9.68
   1  -1 -16  110.92   10.16
   1  -1 -16  117.96   10.70
   1   1 -16  114.82    8.50
   1   1 -16  118.88    9.03
   1   1 -16  109.63    8.67
   1  -1 -16  117.84    9.35
   1  -1 -16  118.21    8.77
  -1  -1  16  115.62    8.61
  -1   1  16  101.02    8.96
  -1   1  16  117.93    9.68
  -1   1  16  109.68    9.71
  -1   1  16  110.98   10.34
  -1  -1  16  122.57    9.53
  -1  -1  16  118.83    9.52
   1   1 -15  656.86   43.25
   1  -1 -15  670.10   44.50
   1  -1 -15  673.55   46.51
   1  -1 -15  684.93   42.18
   1   1 -15  655.71   41.59
   1   1 -15  699.48   46.34
   1   1 -15  683.00   45.67
   1   1 -15  670.86   44.36
   1  -1 -15  671.42   44.84
  -1  -1  15  661.16   40.79
  -1   1  15  674.51   46.06
  -1   1  15  674.17   44.42
  -1   1  15  680.83   47.48
  -1   1  15  666.44   48.05
  -1  -1  15  654.55   42.49
  -1  -1  15  677.97   41.65
   1  -1 -14   64.56    5.49
   1   1 -14   74.71    5.96
   1  -1 -14   67.00    6.21
   1   1 -14   71.51    6.30
   1   1 -14   69.82    5.29
   1   1 -14   66.54    5.37
   1   1 -14   65.94    5.47
   1  -1 -14   71.07    5.45
   1  -1 -14   70.53    5.59
  -1   1  14   64.48    5.51
  -1  -1  14   70.31    5.13
  -1   1  14   70.93    6.12
  -1   1  14   64.71    5.99
  -1   1  14   71.24    5.73
  -1  -1  14   70.89    4.92
  -1  -1  14   72.01    5.68
   1  -1 -13  124.33    5.63
   1  -1 -13  115.80    8.58
   1   1 -13  114.72    8.35
   1  -1 -13  106.65    8.24
   1   1 -13  111.90    8.19
   1   1 -13  115.16    8.09
   1   1 -13  114.65    8.55
   1  -1 -13  112.52    7.64
  -1   1  13  128.42    8.74
  -1   1  13  119.77    8.61
  -1  -1  13  131.55    8.68
  -1  -1  13  113.29    7.32
  -1  -1  13  119.25    7.95
   1   1 -12   71.19    5.84
   1   1 -12   85.63    5.70
   1  -1 -12   68.42    5.82
   1   1 -12   71.84    6.00
   1  -1 -12   77.81    3.38
   1   1 -12   78.13    5.35
  -1   1  12   79.96    5.67
  -1  -1  12   81.02    5.60
  -1   1  12   74.42    6.14
   1  -1 -11  192.53    7.52
   1  -1 -11  200.55   12.32
   1   1 -11  217.07   12.49
  -1  -1  11  219.66   11.39
  -1   1  11  207.07   11.66
   1   1 -10 1111.20   56.31
   1  -1 -10 1033.77   36.63
   1  -1 -10  990.60   51.86
  -1   1  10 1031.62   49.16
  -1  -1  10 1064.75   49.07
   1  -1  -9  172.72    6.49
   1  -1  -9  169.33    9.33
   1   1  -9  176.44    9.39
  -1   1   9  172.08    8.22
  -1  -1   9  182.26    8.91
   1   1  -8   21.00    1.56
   1  -1  -8   20.74    1.69
  -1  -1   8   19.71    1.61
  -1   1   8   17.38    1.41
   1  -1  -7   66.71    2.74
   1   1  -7   73.61    3.99
   1  -1  -7   71.38    3.74
  -1   1   7   67.29    3.28
  -1  -1   7   70.64    3.08
   1  -1  -6  237.02    7.66
   1  -1  -6  241.20    9.62
   1   1  -6  254.97   10.59
  -1   1   6  236.65    8.83
  -1  -1   6  234.54    8.66
   1  -1  -5 1135.41   40.77
   1  -1  -5 1143.33   34.01
   1   1  -5 1172.81   41.33
  -1  -1   5 1219.20   37.82
  -1   1   5 1077.46   36.13
   1  -1  -4 2383.14   75.47
   1   1  -4 2334.58   73.43
   1   1  -4 2260.05   34.52
   1  -1  -4 2374.61   65.78
  -1  -1   4 2292.70   66.80
  -1   1   4 2261.65   66.83
   1  -1  -3 1447.16   38.29
   1   1  -3 1565.99   42.99
   1   1  -3 1537.90   43.68
  -1   1   3 1316.58   35.02
  -1  -1   3 1371.50   33.75
   1  -1  -2  936.83   26.15
   1   1  -2  878.06   24.60
   1   1  -2  875.87   19.43
   1  -1  -2  843.45   22.06
   1   1  -2  909.69   24.41
  -1   1   2  861.50   18.05
   1  -1  -1    6.30    0.51
   1   1  -1    5.14    0.33
   1   1  -1    8.18    0.43
   1   1  -1    6.12    0.50
   1  -1  -1    8.41    0.35
  -1   1   1    6.40    0.16
   1  -1   0 3130.07   79.92
   1  -1   0 2677.98   74.71
   1   1   0 2961.58   85.97
   1   1   0 2918.17   64.87
   1  -1   1 1169.62   31.66
   1  -1   1 1427.94   40.80
   1   1   1 1142.93   31.75
   1   1   1 1131.00   27.13
   1   1   1 1301.14   36.19
   1  -1   2 1941.76   44.79
   1  -1   2 1844.43   49.66
   1   1   2 1904.45   58.38
   1   1   2 1689.70   52.71
   1  -1   3  481.16   13.77
   1   1   3  473.29   15.81
   1  -1   3  521.72   15.21
   1  -1   3  488.14   11.24
   1   1   3  477.32   16.00
   1  -1   4   49.83    1.89
   1   1   4   38.54    1.83
   1  -1   4   46.07    1.75
   1   1   4   39.16    1.94
   1  -1   4   44.43    1.59
   1  -1   5    9.99    0.74
   1   1   5   10.13    0.75
   1  -1   5    9.79    0.64
   1   1   5    8.25    0.78
  -1  -1  -5   10.57    0.76
   1  -1   6  994.68   33.68
   1   1   6  941.53   37.31
   1  -1   6  992.26   35.50
   1  -1   6 1032.54   32.37
   1   1   6 1001.84   37.14
  -1  -1  -6 1022.92   35.59
   1   1   7   74.52    4.29
   1  -1   7   83.80    4.23
   1   1   7   80.01    3.67
   1  -1   7   79.91    3.15
   1  -1   7   83.54    3.73
  -1  -1  -7   84.92    4.02
  -1   1  -7   81.15    4.79
   1  -1   8  372.04   16.23
   1  -1   8  335.65   12.66
   1   1   8  333.12   16.58
   1  -1   8  333.24   14.13
  -1   1  -8  346.73   16.66
  -1  -1  -8  350.86   15.28
  -1  -1  -8  346.38   12.78
   1  -1   9    3.08    0.67
   1  -1   9    3.74    0.55
   1   1   9    4.19    0.88
   1  -1   9    1.92    0.77
  -1   1  -9    2.63    0.88
  -1  -1  -9    3.27    0.61
  -1  -1  -9    2.77    0.52
   1  -1  10   12.69    1.03
   1  -1  10   16.20    1.59
   1   1  10   15.55    1.52
  -1  -1 -10   15.70    1.54
  -1  -1 -10   17.75    1.26
  -1   1 -10   17.06    1.94
   1  -1  11 1040.90   43.22
   1   1  11 1002.12   59.76
   1  -1  11 1002.64   49.78
  -1  -1 -11 1079.65   43.32
  -1   1 -11 1092.82   58.23
  -1  -1 -11 1084.98   53.18
   1  -1  12  102.27    6.74
   1  -1  12  102.18    6.86
   1   1  12   96.01    6.96
   1   1  12   97.13    6.79
   1   1  12   97.38    8.02
   1   1  12   98.99    8.31
   1  -1  12  101.49    6.75
  -1   1 -12  110.51    4.57
  -1   1 -12  113.97    7.91
  -1  -1 -12  106.02    6.56
  -1  -1 -12  126.09    6.03
   1  -1  13   65.34    4.96
   1  -1  13   63.15    4.97
   1  -1  13   65.03    5.11
   1   1  13   64.22    4.84
   1   1  13   60.42    6.39
   1   1  13   58.84    4.94
   1   1  13   57.87    5.72
  -1   1 -13   72.12    3.52
  -1  -1 -13   64.60    4.67
  -1  -1 -13   74.38    4.11
  -1   1 -13   70.85    5.03
   1   1  14    0.13    0.66
   1  -1  14    0.54    0.55
   1   1  14    0.10    0.58
   1  -1  14    0.68    0.53
   1   1  14    0.01    0.45
   1  -1  14   -0.02    0.36
   1  -1  14    0.87    0.40
   1   1  14    0.47    0.64
   1   1  14    0.00    0.48
  -1   1 -14    2.47    0.59
  -1   1 -14    0.34    0.60
  -1  -1 -14    0.30    0.52
  -1   1 -14    0.16    0.53
  -1  -1 -14    0.43    0.34
  -1   1 -14    0.00    0.26
   1  -1  15   21.38    2.90
   1  -1  15   22.53    2.89
   1  -1  15   16.74    2.15
   1  -1  15   20.76    2.68
   1   1  15   20.95    2.54
   1   1  15   22.41    2.94
   1   1  15   18.35    3.10
   1   1  15   17.64    3.07
   1   1  15   17.60    2.20
  -1   1 -15   23.02    2.64
  -1  -1 -15   20.93    1.89
  -1   1 -15   22.64    2.75
  -1   1 -15   20.73    2.82
  -1  -1 -15   24.61    2.77
   1  -1  16   42.09    4.71
   1  -1  16   42.07    4.35
   1  -1  16   39.72    3.95
   1   1  16   37.65    4.11
   1  -1  16   38.43    3.73
   1   1  16   38.20    4.93
   1   1  16   44.19    5.71
   1   1  16   45.44    5.09
  -1   1 -16   37.54    3.96
  -1  -1 -16   46.49    4.47
  -1   1 -16   40.56    4.15
  -1  -1 -16   43.01    3.10
  -1   1 -16   43.48    4.84
   1  -1  17    6.00    1.84
   1   1  17    4.21    1.55
   1   1  17    6.97    1.43
   1   1  17    8.52    2.30
   1  -1  17    6.32    1.82
   1  -1  17    4.35    1.36
   1   1  17    5.45    2.05
   1  -1  17    6.22    1.72
  -1   1 -17    5.60    1.38
  -1   1 -17    7.56    1.89
  -1  -1 -17    6.22    1.50
   1  -1  18  211.51   18.85
   1  -1  18  211.35   18.93
   1   1  18  217.37   20.73
   1  -1  18  193.10   15.13
   1  -1  18  215.72   17.48
   1   1  18  202.61   17.26
   1   1  18  201.91   20.35
   1   1  18  213.95   19.77
  -1   1 -18  225.45   18.70
  -1  -1 -18  192.55   15.42
   1  -1  19    9.05    1.79
   1   1  19    8.62    2.58
   1  -1  19    5.48    1.73
   1  -1  19    7.73    2.38
   1  -1  19    8.36    2.67
   1   1  19    9.72    2.65
   1   1  19    5.99    1.97
   1   1  19    7.51    2.99
  -1  -1 -19    9.47    2.05
  -1  -1 -19    6.76    1.43
  -1   1 -19    8.26    2.34
   1  -1  20   66.15    6.94
   1  -1  20   62.87    8.09
   1  -1  20   72.41    8.71
   1   1  20   77.05    9.20
   1   1  20   60.50    7.12
   1   1  20   80.79    9.50
   1  -1  20   75.83    8.36
   1   1  20   67.94    8.04
  -1   1 -20   69.62    7.57
  -1  -1 -20   72.34    7.92
  -1  -1 -20   61.05    6.16
   1   1  21  146.79   15.99
   1  -1  21  113.78   13.44
   1  -1  21  153.62   14.79
   1  -1  21  128.19   11.78
   1  -1  21  142.42   14.57
   1   1  21  143.12   15.70
   1   1  21  124.02   12.64
   1   1  21  113.16   12.38
  -1   1 -21  138.75   12.70
  -1  -1 -21  131.35   12.11
  -1  -1 -21  130.50   13.19
  -1   1 -21  135.18   13.48
   1  -1  22    2.59    1.59
   1  -1  22    3.86    2.49
   1  -1  22    6.24    1.61
   1   1  22    5.67    2.38
   1   1  22    3.88    1.97
   1   1  22    8.01    2.43
  -1   1 -22    4.91    2.02
  -1  -1 -22    4.07    1.74
   1   1  23   53.79    8.42
   1   1  23   53.75    6.89
   1   1  23   59.47    8.64
   1  -1  23   56.28    6.56
   1  -1  23   50.00    6.54
   1  -1  23   58.54    8.50
  -1   1 -23   58.76    7.05
  -1  -1 -23   53.91    6.72
   1  -1  24   13.15    3.14
   1   1  24    9.26    3.14
   1  -1  24   10.08    3.08
   1   1  24   11.75    3.18
   1   1  24    4.87    2.47
   1  -1  24    7.04    2.46
  -1   1 -24   11.52    1.94
  -1  -1 -24    9.18    2.36
   1  -1  25    2.93    1.84
   1   1  25    5.00    1.90
   1   1  25    0.66    1.47
   1   1  25    2.88    1.80
   1  -1  25    3.00    1.83
  -1  -1 -25    2.61    1.49
  -1   1 -25    4.37    1.57
   1   1  26   33.05    5.29
   1  -1  26   34.07    5.25
   1  -1  26   35.63    5.44
   1   1  26   30.97    5.41
  -1   1 -26   31.34    4.61
  -1  -1 -26   25.85    4.60
   1   1  27   11.18    3.36
   1   1  27   12.07    3.19
   1   1  27   14.38    3.17
   1  -1  27   13.58    2.86
   1  -1  27   14.87    3.17
  -1   1 -27   10.40    2.60
   1   1  28   22.53    4.07
   1  -1  28   24.07    3.89
   1   1  28   28.47    4.07
   1  -1  28   27.56    4.27
  -1   1 -28   21.02    3.28
   1  -2 -28    3.78    1.39
   1   2 -28    2.73    1.39
  -1   2  28    1.51    1.50
  -1  -2  28    2.62    1.41
   1   2 -27    4.76    1.77
   1  -2 -27    5.11    1.92
  -1  -2  27    5.52    1.88
   1  -2 -26    6.17    2.00
   1  -2 -26    2.58    1.90
   1   2 -26    5.63    1.90
  -1  -2  26    5.42    1.92
  -1  -2  26    4.99    2.08
   1  -2 -25    1.20    1.74
   1   2 -25    4.89    1.81
  -1  -2  25    3.95    1.76
  -1   2  25    3.08    1.99
  -1  -2  25    4.53    1.76
   1  -2 -24   12.71    3.25
   1   2 -24   13.19    2.86
   1   2 -24   20.50    3.57
  -1  -2  24   17.25    3.26
  -1  -2  24   13.60    3.53
  -1   2  24   14.02    3.73
   1  -2 -23  116.06   12.30
   1   2 -23  124.36   13.00
   1   2 -23  110.97   11.04
  -1   2  23  111.61   13.96
  -1  -2  23  110.35   11.49
  -1  -2  23  118.23   13.02
   1  -2 -22  159.37   15.92
   1   2 -22  165.20   15.19
   1   2 -22  163.98   16.78
  -1   2  22  156.17   18.59
  -1  -2  22  162.62   16.17
  -1  -2  22  163.55   15.15
   1   2 -21  132.49   12.96
   1   2 -21  112.93   12.42
   1  -2 -21  118.66   12.56
   1   2 -21  118.84   11.33
   1  -2 -21  118.24   12.95
  -1  -2  21  120.26   12.17
  -1  -2  21  128.19   11.58
  -1   2  21  116.77   14.36
  -1   2  21  116.82   14.06
  -1  -2  21  112.79   12.51
   1  -2 -20    1.37    1.64
   1   2 -20    4.25    1.85
   1  -2 -20    3.36    1.79
   1   2 -20    2.37    1.12
   1   2 -20    3.33    1.76
   1   2 -20    2.76    1.54
  -1   2  20    6.17    2.11
  -1  -2  20    3.59    1.63
  -1  -2  20    5.79    1.44
  -1  -2  20    4.57    1.89
  -1   2  20    3.93    1.86
   1   2 -19    7.62    1.84
   1   2 -19    5.10    1.72
   1  -2 -19    7.65    1.98
   1  -2 -19    2.54    1.76
   1   2 -19    4.08    1.94
   1   2 -19    3.32    2.09
  -1   2  19    6.18    2.21
  -1   2  19    4.55    2.05
  -1  -2  19    6.79    1.70
  -1  -2  19    6.02    1.63
  -1   2  19    4.66    1.56
  -1  -2  19    3.04    2.01
   1   2 -18   75.36    6.41
   1  -2 -18   89.55    8.51
   1   2 -18   73.05    7.75
   1   2 -18   80.27    8.00
   1   2 -18   78.59    7.76
   1  -2 -18   78.30    8.53
   1   2 -18   77.50    7.03
  -1   2  18   55.85    7.09
  -1   2  18   75.33    8.89
  -1  -2  18   69.59    6.78
  -1  -2  18   77.99    8.11
  -1  -2  18   78.81    6.68
  -1   2  18   73.65    9.15
   1  -2 -17  114.65   11.08
   1  -2 -17  120.64   10.75
   1   2 -17  113.53   10.71
   1  -2 -17  115.19    8.76
   1   2 -17  116.92    9.13
   1   2 -17  125.30   10.66
   1   2 -17  118.47   10.24
   1   2 -17  117.81    9.92
  -1   2  17   92.12    9.69
  -1   2  17  112.47   11.89
  -1  -2  17  111.25    9.31
  -1   2  17  119.44   11.59
  -1  -2  17  113.96    9.64
  -1  -2  17  116.39    8.53
   1  -2 -16   81.94    7.61
   1   2 -16   71.80    6.09
   1   2 -16   76.04    6.81
   1  -2 -16   70.78    7.89
   1   2 -16   75.41    6.98
   1   2 -16   76.84    7.19
   1   2 -16   77.66    7.54
   1  -2 -16   76.69    6.05
  -1   2  16   57.77    6.59
  -1   2  16   80.74    8.35
  -1   2  16   74.90    8.45
  -1  -2  16   74.04    6.43
  -1  -2  16   74.55    6.88
  -1  -2  16   75.44    6.48
   1  -2 -15  712.55   48.51
   1   2 -15  746.39   50.48
   1   2 -15  710.06   45.93
   1  -2 -15  740.30   51.83
   1  -2 -15  724.76   45.11
   1   2 -15  740.29   49.96
   1   2 -15  701.29   47.36
   1   2 -15  724.38   48.98
  -1   2  15  684.35   49.67
  -1   2  15  728.38   57.04
  -1  -2  15  784.60   46.53
  -1  -2  15  703.90   44.43
  -1  -2  15  711.93   44.39
  -1   2  15  737.81   52.16
   1   2 -14   70.23    6.67
   1   2 -14   66.08    5.18
   1  -2 -14   64.90    6.06
   1  -2 -14   65.43    5.09
   1   2 -14   66.23    5.12
   1  -2 -14   62.77    6.23
   1   2 -14   68.18    6.12
   1   2 -14   63.17    5.31
   1   2 -14   57.77    5.11
   1  -2 -14   74.96    4.31
  -1   2  14   63.15    6.03
  -1  -2  14   67.85    5.10
  -1   2  14   72.71    7.30
  -1   2  14   66.63    6.35
  -1  -2  14   77.63    6.47
  -1  -2  14   66.92    5.08
   1  -2 -13 1043.41   64.13
   1  -2 -13 1051.40   46.33
   1   2 -13 1079.09   66.65
   1  -2 -13 1124.69   65.73
   1   2 -13 1088.20   66.52
   1  -2 -13 1065.35   70.38
   1   2 -13 1071.10   67.13
   1   2 -13 1099.57   63.71
   1   2 -13 1074.65   67.88
   1   2 -13 1114.17   68.74
  -1  -2  13 1079.19   61.03
  -1  -2  13 1174.17   62.94
  -1   2  13 1121.24   76.79
  -1  -2  13 1079.88   59.71
  -1   2  13 1080.01   67.07
  -1   2  13 1210.87   76.53
   1  -2 -12   12.89    2.08
   1   2 -12   16.26    2.41
   1   2 -12   16.68    1.68
   1   2 -12   18.39    2.17
   1   2 -12   19.03    2.47
   1   2 -12   15.49    2.14
   1  -2 -12   20.52    1.52
  -1   2  12   17.05    1.97
  -1   2  12   16.20    1.76
  -1  -2  12   12.98    1.68
  -1  -2  12   14.90    1.71
  -1  -2  12   18.38    1.80
   1  -2 -11  766.16   41.99
   1   2 -11  825.75   43.36
   1  -2 -11  787.02   32.87
  -1   2  11  758.83   40.65
  -1  -2  11  772.50   40.67
   1  -2 -10  222.45   12.41
   1  -2 -10  229.08   10.43
   1   2 -10  228.72   12.52
  -1  -2  10  255.07   13.05
  -1   2  10  215.13   12.06
   1  -2  -9   28.14    1.75
   1  -2  -9   27.60    2.35
   1   2  -9   27.98    2.50
  -1   2   9   35.49    2.26
  -1  -2   9   30.89    1.91
   1  -2  -8    1.77    0.46
   1   2  -8    2.04    0.53
   1  -2  -8    2.67    0.61
  -1  -2   8    2.36    0.58
  -1   2   8    3.44    0.55
   1  -2  -7  436.92   16.48
   1  -2  -7  467.69   19.56
   1   2  -7  440.47   19.40
  -1   2   7  429.68   18.03
  -1  -2   7  485.19   18.48
  -1  -2   7  372.40   16.36
   1  -2  -6 1126.34   42.47
   1  -2  -6 1075.30   37.92
   1   2  -6 1130.93   43.79
  -1   2   6 1149.21   41.61
  -1  -2   6  962.54   37.90
  -1  -2   6 1243.26   41.15
   1  -2  -5 1137.03   39.86
   1   2  -5 1193.75   42.09
   1  -2  -5 1127.91   38.04
  -1  -2   5 1142.53   35.54
  -1   2   5 1271.80   42.51
  -1  -2   5 1191.20   39.50
   1  -2  -4 2427.39   73.62
   1   2  -4 2070.78   69.25
   1   2  -4 2230.12   73.69
   1  -2  -4 1990.60   68.94
  -1   2   4 2181.06   67.29
  -1  -2   4 2254.05   59.01
  -1  -2   4 2061.66   34.59
   1  -2  -3 1112.67   36.40
   1   2  -3 1171.24   33.80
   1  -2  -3 1121.71   36.47
   1   2  -3 1105.23   37.69
  -1   2   3 1018.58   28.67
  -1  -2   3 1206.73   30.05
   1  -2  -2  104.69    4.10
   1   2  -2  112.70    3.53
   1  -2  -2  104.63    4.06
   1   2  -2  116.63    4.95
  -1   2   2  115.54    2.84
  -1  -2   2  109.37    2.56
  -1  -2   2   98.53    2.74
   1   2  -1 1224.09   29.78
   1  -2  -1 1368.78   39.35
   1  -2  -1 1220.12   36.07
   1   2  -1 1553.73   47.67
  -1   2   1 1212.53   25.21
   1  -2   0  713.23   21.38
   1   2   0  801.37   16.89
   1   2   0  823.71   28.06
   1  -2   0  756.30   23.64
  -1  -2   0  719.28   19.14
   1  -2   1 2202.78   63.11
   1   2   1 2070.93   44.06
   1   2   1 2293.48   77.92
   1  -2   2 1646.40   51.56
   1   2   2 1890.18   65.87
  -1  -2  -2 1783.14   51.27
   1  -2   3  263.20    6.39
   1   2   3  253.03   10.72
   1  -2   3  250.19    8.24
  -1  -2  -3  288.14    9.09
   1  -2   4   27.39    1.53
   1  -2   4   28.91    1.03
   1  -2   4   27.63    1.31
   1   2   4   28.79    1.97
  -1  -2  -4   26.86    1.42
  -1  -2  -4   26.95    0.98
   1  -2   5  533.55   16.68
   1  -2   5  512.12   19.21
   1  -2   5  562.91   18.49
   1   2   5  510.77   22.49
  -1  -2  -5  533.87   18.47
  -1  -2  -5  540.19   16.73
   1  -2   6 2969.26  107.56
   1  -2   6 2706.51   92.12
   1  -2   6 2738.66   94.35
   1   2   6 3293.95  128.07
  -1  -2  -6 3383.33  111.73
  -1  -2  -6 2772.98   96.79
   1  -2   7    5.90    0.83
   1  -2   7    5.96    0.69
   1  -2   7    6.52    0.62
   1   2   7    4.77    1.06
  -1   2  -7    6.74    1.19
  -1  -2  -7    6.32    0.61
  -1  -2  -7    5.11    0.81
   1  -2   8 1405.71   49.26
   1  -2   8 1481.29   57.74
   1  -2   8 1402.92   59.29
   1   2   8 1430.09   73.48
  -1  -2  -8 1416.55   55.45
  -1  -2  -8 1478.62   57.47
  -1   2  -8 1456.62   67.98
   1  -2   9  364.62   16.30
   1  -2   9  419.07   16.10
   1   2   9  373.50   22.61
   1  -2   9  409.89   20.06
  -1   2  -9  421.89   22.20
  -1  -2  -9  367.15   16.43
  -1  -2  -9  389.21   16.86
   1   2  10    0.72    0.86
   1  -2  10    1.75    0.36
   1  -2  10    1.00    0.35
   1  -2  10    1.99    0.74
  -1   2 -10    0.19    0.79
  -1  -2 -10    0.31    0.55
  -1  -2 -10    1.31    0.43
   1  -2  11  687.43   37.04
   1  -2  11  600.63   33.93
   1  -2  11  601.97   29.82
   1  -2  11  628.81   26.31
   1   2  11  593.55   39.25
   1   2  11  620.98   36.57
   1  -2  11  572.91   32.97
  -1   2 -11  676.55   38.04
  -1  -2 -11  613.96   30.67
  -1  -2 -11  679.61   30.23
   1  -2  12  389.91   16.80
   1  -2  12  357.00   19.67
   1  -2  12  389.05   22.35
   1   2  12  378.57   27.68
   1   2  12  382.46   27.09
   1   2  12  387.54   23.89
   1   2  12  297.71   22.33
   1  -2  12  368.13   21.43
  -1   2 -12  372.49   25.63
  -1  -2 -12  406.39   18.87
  -1  -2 -12  402.28   21.00
  -1   2 -12  417.39   25.08
   1  -2  13  218.29   12.87
   1   2  13  201.51   13.83
   1  -2  13  202.66   13.08
   1   2  13  196.72   14.87
   1   2  13  193.17   16.01
   1   2  13  189.58   16.00
   1   2  13  185.90   12.20
   1  -2  13  194.36   12.95
  -1   2 -13  197.87   14.78
  -1   2 -13  215.93    8.42
  -1   2 -13  189.29   13.17
  -1  -2 -13  209.46   10.83
  -1   2 -13  213.05   14.57
  -1  -2 -13  219.82   12.89
   1  -2  14  105.26    7.86
   1   2  14   89.68    6.68
   1   2  14  108.43   10.23
   1   2  14  110.12    8.65
   1   2  14  101.80   10.08
   1   2  14  106.04    9.06
   1  -2  14  111.75    7.87
   1  -2  14  108.20    7.77
  -1   2 -14  107.46    8.87
  -1   2 -14  116.96    9.29
  -1  -2 -14  121.23    7.92
  -1   2 -14   97.33    7.49
  -1  -2 -14  115.98    6.75
   1  -2  15   47.28    4.58
   1   2  15   43.10    3.79
   1  -2  15   48.12    4.46
   1  -2  15   48.14    4.38
   1   2  15   42.54    4.94
   1   2  15   47.11    5.36
   1   2  15   42.91    6.17
   1   2  15   46.65    5.94
  -1   2 -15   49.22    4.73
  -1   2 -15   43.09    4.15
  -1   2 -15   48.35    4.97
  -1  -2 -15   52.00    3.74
  -1  -2 -15   45.78    3.50
   1  -2  16    4.58    1.24
   1  -2  16    1.31    0.93
   1   2  16    3.08    1.14
   1  -2  16    5.25    1.30
   1   2  16    1.82    1.18
   1   2  16    2.87    1.77
   1   2  16    2.68    1.88
   1   2  16    3.01    1.09
   1  -2  16    3.21    1.22
  -1   2 -16   10.18    1.37
  -1   2 -16    2.87    1.13
  -1   2 -16    2.83    1.25
  -1  -2 -16    4.10    1.05
  -1  -2 -16    2.64    0.96
   1  -2  17    8.20    1.64
   1  -2  17    8.19    1.86
   1   2  17   10.08    2.28
   1  -2  17    6.79    1.84
   1   2  17    5.66    2.24
   1   2  17    3.32    1.71
   1   2  17    4.13    1.26
   1   2  17    7.57    1.74
   1  -2  17    5.16    1.38
  -1  -2 -17    7.72    1.23
  -1   2 -17    6.43    1.71
  -1   2 -17    7.96    1.87
  -1  -2 -17    4.00    1.56
  -1   2 -17    5.68    1.52
  -1  -2 -17    5.71    1.59
   1  -2  18   22.87    3.43
   1   2  18   17.59    3.77
   1   2  18   14.29    3.02
   1  -2  18   20.10    3.08
   1  -2  18   19.35    2.59
   1   2  18   17.29    4.10
   1  -2  18   13.76    2.37
   1   2  18   20.01    3.93
  -1   2 -18   16.85    2.77
  -1   2 -18   16.61    2.63
  -1   2 -18   20.54    3.48
  -1  -2 -18   15.08    2.85
  -1  -2 -18   22.60    2.94
   1  -2  19  101.12   10.11
   1   2  19   74.23    9.90
   1  -2  19   87.87    7.80
   1  -2  19   94.98    8.95
   1  -2  19   95.68    9.46
   1   2  19   92.97   10.57
   1   2  19   83.22    8.60
   1   2  19   85.62   10.91
  -1   2 -19   98.18   10.20
  -1   2 -19   86.53    8.30
  -1  -2 -19   83.21    8.19
  -1  -2 -19   83.70    8.49
   1  -2  20    4.00    1.67
   1  -2  20    4.20    1.69
   1  -2  20    1.45    1.23
   1   2  20    1.19    1.49
   1   2  20    4.35    2.00
   1   2  20    3.37    2.09
   1  -2  20    3.65    1.88
   1   2  20    3.97    1.98
  -1   2 -20    3.49    1.31
  -1   2 -20    4.26    1.57
  -1  -2 -20    1.35    1.28
   1  -2  21    5.32    1.50
   1  -2  21    0.89    1.54
   1   2  21    4.82    1.93
   1   2  21    0.02    1.77
   1   2  21    0.28    1.69
   1   2  21    0.14    1.45
   1  -2  21    0.01    1.06
   1  -2  21    3.22    1.50
  -1   2 -21    4.25    1.36
  -1  -2 -21    0.22    1.09
   1  -2  22   51.80    7.19
   1  -2  22   48.01    5.82
   1  -2  22   58.50    7.54
   1   2  22   47.29    7.30
   1   2  22   48.90    7.98
   1   2  22   53.38    6.77
  -1   2 -22   49.79    6.41
  -1  -2 -22   48.25    6.17
   1   2  23    0.08    1.13
   1  -2  23    1.55    0.91
   1   2  23    3.15    1.49
   1   2  23    4.21    1.51
   1  -2  23    0.07    1.36
  -1   2 -23    0.03    1.13
  -1  -2 -23    0.04    1.03
   1  -2  24    9.65    2.43
   1  -2  24    8.59    2.63
   1   2  24    5.86    2.77
   1   2  24    6.39    2.89
   1   2  24    4.48    2.07
  -1   2 -24    7.01    2.09
   1  -2  25   22.01    4.28
   1  -2  25   23.23    4.00
   1   2  25   20.03    4.37
   1   2  25   13.79    3.53
   1   2  25   18.99    4.21
  -1   2 -25   18.99    3.39
   1   2  26    0.53    1.04
   1  -2  26    0.52    1.05
   1  -2  26    0.79    1.01
   1   2  26    0.08    1.18
   1   2  26    0.26    1.03
  -1   2 -26    0.60    0.97
   1   2  27    7.37    3.11
   1  -2  27   11.20    2.65
   1   2  27    9.84    2.69
   1   2  27    9.18    3.23
   1  -2  27   10.49    2.64
  -1   2 -27    9.92    2.46
   1  -2  28   40.06    5.02
   1  -2  28   39.55    4.87
   1   2  28   37.50    5.34
  -1   2 -28   34.78    4.41
  -1  -2 -28   39.74    4.59
   1  -3 -28    0.67    0.82
   1   3 -28    0.47    0.74
  -1   3  28    0.06    0.85
   1  -3 -27   13.33    2.57
   1   3 -27   12.50    2.24
  -1   3  27    9.17    2.77
  -1   3  27    0.04    2.22
  -1  -3  27   11.04    2.44
  -1  -3  27    8.98    2.23
   1  -3 -26    0.40    1.15
   1   3 -26    0.05    1.18
  -1  -3  26    0.20    1.09
  -1  -3  26    3.31    1.13
  -1   3  26    0.24    1.15
   1   3 -25    8.98    2.05
   1   3 -25    6.34    2.37
   1  -3 -25    9.57    2.66
  -1  -3  25    7.74    2.31
  -1  -3  25    6.56    2.13
   1  -3 -24    6.35    2.58
   1   3 -24    9.97    2.40
   1   3 -24    5.38    2.61
  -1  -3  24    7.41    2.14
  -1  -3  24    7.86    2.51
   1  -3 -23    0.46    1.33
   1   3 -23    3.47    1.25
   1   3 -23    2.54    0.99
  -1  -3  23    0.79    1.32
  -1   3  23    0.80    1.18
  -1  -3  23   -0.36    1.29
   1  -3 -22   83.65    9.50
   1   3 -22   88.31    9.38
   1   3 -22   93.68   10.53
  -1  -3  22   85.93    9.59
  -1  -3  22   82.12    9.05
  -1   3  22   72.18   11.38
   1  -3 -21   31.44    4.81
   1   3 -21   36.91    5.39
   1   3 -21   35.66    5.87
   1   3 -21   45.08    5.19
   1   3 -21   35.42    4.86
  -1   3  21   26.43    5.91
  -1  -3  21   35.00    4.57
  -1  -3  21   34.66    5.57
  -1  -3  21   37.91    5.22
  -1   3  21   30.35    6.77
   1  -3 -20    5.65    2.18
   1  -3 -20    4.40    2.01
   1   3 -20    5.42    2.57
   1   3 -20    7.84    1.54
   1   3 -20    7.07    1.60
   1   3 -20    8.46    2.19
  -1   3  20    9.51    2.86
  -1  -3  20    5.21    2.08
  -1  -3  20    8.52    2.35
  -1  -3  20    5.97    1.81
  -1   3  20    5.48    2.58
   1  -3 -19   13.51    3.15
   1  -3 -19   13.57    3.28
   1   3 -19   22.36    2.67
   1   3 -19   17.05    3.18
   1   3 -19   17.37    2.59
   1   3 -19   18.71    3.99
  -1   3  19   14.41    4.25
  -1   3  19   15.39    4.27
  -1   3  19   16.04    3.02
  -1  -3  19   17.84    2.97
  -1  -3  19   17.08    3.31
  -1  -3  19   15.78    2.73
   1  -3 -18  158.14   14.44
   1   3 -18  161.87   13.47
   1  -3 -18  150.45   14.00
   1   3 -18  156.06   14.93
   1   3 -18  156.50   13.81
   1   3 -18  146.19   11.75
   1   3 -18  163.10   14.12
  -1   3  18  158.96   17.67
  -1   3  18  159.90   13.67
  -1  -3  18  153.37   11.82
  -1  -3  18  167.59   13.47
  -1  -3  18  157.69   12.05
  -1   3  18  156.03   16.50
   1   3 -17   62.89    6.66
   1  -3 -17   54.47    6.60
   1  -3 -17   61.91    6.66
   1   3 -17   61.30    6.65
   1   3 -17   63.32    6.54
   1   3 -17   60.18    7.00
   1   3 -17   60.68    5.53
  -1   3  17   66.78    6.78
  -1   3  17   61.55    8.11
  -1   3  17   58.24    8.05
  -1  -3  17   64.68    6.03
  -1  -3  17   65.05    6.65
  -1  -3  17   60.65    5.67
   1   3 -16  141.22   12.06
   1  -3 -16  135.82   12.28
   1   3 -16  139.24   10.81
   1   3 -16  150.31   12.40
   1   3 -16  139.50   12.40
   1  -3 -16  138.65   12.13
   1   3 -16  142.62   12.17
  -1   3  16  147.26   12.11
  -1   3  16  140.31   14.49
  -1  -3  16  148.30   10.30
  -1  -3  16  152.73   12.10
  -1  -3  16  144.22   10.26
  -1   3  16  122.74   12.06
   1  -3 -15  207.93   16.51
   1   3 -15  234.20   16.62
   1  -3 -15  245.88   14.19
   1   3 -15  240.02   18.27
   1  -3 -15  225.20   18.86
   1   3 -15  232.92   17.98
   1   3 -15  259.41   18.87
   1   3 -15  238.40   17.97
   1   3 -15  231.15   16.64
  -1   3  15  234.28   18.57
  -1   3  15  230.17   19.72
  -1   3  15  199.16   17.34
  -1  -3  15  231.38   15.89
  -1  -3  15  243.54   15.55
  -1  -3  15  255.78   16.25
  -1   3  15  237.23   18.21
   1  -3 -14  147.12   11.44
   1  -3 -14  156.38    8.96
   1   3 -14  152.71   11.27
   1   3 -14  157.63   11.38
   1  -3 -14  156.70   10.49
   1   3 -14  155.82   11.84
   1   3 -14  157.78   11.93
   1   3 -14  164.01   12.41
   1   3 -14  161.79   12.26
   1  -3 -14  147.57   12.33
  -1   3  14  141.92   12.23
  -1   3  14  155.39   12.92
  -1  -3  14  160.11   10.97
  -1  -3  14  170.13   11.78
  -1  -3  14  161.61   10.15
  -1   3  14  164.98   14.62
   1  -3 -13  211.37   11.48
   1  -3 -13  218.19   14.35
   1  -3 -13  207.82   14.14
   1   3 -13  236.04   15.73
   1   3 -13  222.45   16.79
   1   3 -13  221.76   15.13
   1   3 -13  219.75   15.58
   1   3 -13  209.13   15.12
   1  -3 -13  211.39   16.31
   1   3 -13  210.96   14.69
  -1   3  13  196.18   14.87
  -1   3  13  228.41   17.07
  -1  -3  13  217.79   13.15
  -1  -3  13  214.64   13.21
  -1  -3  13  226.42   14.23
  -1   3  13  217.05   18.01
   1  -3 -12  271.25   13.82
   1  -3 -12  260.41   16.81
   1   3 -12  276.82   18.82
   1  -3 -12  251.20   18.07
   1   3 -12  277.90   18.69
   1   3 -12  271.80   18.16
   1   3 -12  272.32   16.91
   1  -3 -12  264.33   16.48
   1   3 -12  271.27   19.09
  -1   3  12  295.18   20.08
  -1   3  12  241.78   16.15
  -1  -3  12  281.17   16.07
  -1  -3  12  288.62   16.20
  -1   3  12  277.05   21.10
  -1  -3  12  272.58   15.57
   1  -3 -11   45.02    2.99
   1   3 -11   39.90    3.67
   1   3 -11   39.34    4.29
   1  -3 -11   41.12    3.29
   1   3 -11   40.59    3.28
   1   3 -11   45.16    3.79
   1  -3 -11   41.00    3.38
  -1   3  11   33.98    3.49
  -1   3  11   45.11    4.60
  -1  -3  11   44.47    3.09
  -1  -3  11   41.84    3.08
   1  -3 -10   87.97    5.74
   1  -3 -10   92.45    5.26
   1   3 -10   87.19    5.54
  -1   3  10   97.67    6.20
  -1  -3  10   95.15    5.77
  -1  -3  10   99.33    5.74
   1  -3  -9   40.62    2.76
   1   3  -9   39.89    3.17
   1  -3  -9   40.56    2.83
  -1   3   9   38.26    2.95
  -1  -3   9   44.00    2.96
  -1  -3   9   45.61    2.80
   1  -3  -8  109.21    5.60
   1  -3  -8  101.67    5.24
   1   3  -8  107.18    6.11
  -1  -3   8  117.35    5.53
  -1  -3   8  117.75    6.09
  -1   3   8   98.76    5.63
   1  -3  -7  231.14   10.38
   1  -3  -7  208.48    9.49
   1   3  -7  228.05   11.15
  -1   3   7  220.81   10.39
  -1  -3   7  238.76   10.72
  -1  -3   7  240.66    9.49
   1   3  -6  102.52    4.97
   1  -3  -6   94.00    4.34
   1  -3  -6   97.88    4.72
  -1   3   6  116.70    5.53
  -1  -3   6  104.48    4.24
  -1  -3   6   96.43    4.70
   1   3  -5   10.49    0.98
   1  -3  -5   10.40    0.92
   1  -3  -5   13.64    1.14
   1   3  -5   18.54    1.07
  -1   3   5   15.93    1.06
  -1  -3   5   12.49    0.85
   1  -3  -4   30.97    1.60
   1   3  -4   24.61    1.49
   1   3  -4   27.63    1.57
   1  -3  -4   24.23    1.30
  -1   3   4   29.81    1.48
  -1  -3   4   26.69    1.27
  -1  -3   4   26.48    0.80
   1  -3  -3    9.22    0.66
   1  -3  -3    7.34    0.84
   1   3  -3    7.58    0.66
   1   3  -3    9.52    0.95
  -1  -3   3    8.30    0.42
  -1  -3   3    7.82    0.57
  -1   3   3    9.70    0.62
   1  -3  -2  303.60   11.03
   1   3  -2  367.07   10.39
   1   3  -2  394.75   16.46
   1  -3  -2  395.98   14.35
  -1  -3   2  365.22    9.79
  -1   3   2  367.72   11.42
   1  -3  -1   15.29    1.06
   1  -3  -1   14.98    0.95
   1   3  -1   13.98    0.56
   1   3  -1   11.65    1.19
  -1  -3   1   13.75    0.68
  -1   3   1   14.51    0.72
   1  -3   0    0.98    0.31
   1   3   0    0.63    0.07
   1   3   0    1.17    0.29
  -1   3   0    0.62    0.16
  -1  -3   0    1.40    0.21
   1  -3   1    1.21    0.38
   1   3   1    1.15    0.37
  -1   3  -1    1.28    0.19
  -1  -3  -1    2.92    0.33
   1  -3   2 2218.91   49.43
   1  -3   2 2108.51   71.64
   1   3   2 2214.72   87.41
  -1  -3  -2 1965.48   71.35
   1  -3   3  219.91    6.03
   1  -3   3  237.68    8.90
   1   3   3  212.13   10.52
  -1  -3  -3  234.50    9.43
   1  -3   4 1701.37   61.29
   1  -3   4 1757.57   60.75
   1  -3   4 1886.53   49.36
   1   3   4 1899.77   81.19
  -1  -3  -4 1669.89   65.92
   1  -3   5   49.29    2.31
   1  -3   5   47.87    1.87
   1   3   5   47.88    3.08
   1  -3   5   47.70    2.79
  -1  -3  -5   52.97    1.60
  -1  -3  -5   51.19    2.70
   1  -3   6   87.74    4.46
   1  -3   6   95.64    3.64
   1   3   6   60.93    5.21
   1  -3   6   80.69    3.54
  -1  -3  -6   83.89    3.01
  -1  -3  -6   90.84    4.75
   1  -3   7  569.18   20.49
   1  -3   7  592.90   26.41
   1  -3   7  534.40   20.55
   1   3   7  516.73   30.11
  -1   3  -7  549.43   27.62
  -1  -3  -7  564.56   19.84
  -1  -3  -7  562.88   24.18
   1  -3   8 1829.01   64.07
   1  -3   8 1841.50   71.90
   1   3   8 1819.64   98.47
   1  -3   8 1702.20   75.57
  -1   3  -8 1860.61   89.29
  -1  -3  -8 1881.88   70.03
  -1  -3  -8 1744.76   76.58
   1  -3   9   90.30    4.00
   1  -3   9   85.77    4.65
   1  -3   9   85.85    5.44
   1   3   9   79.87    6.84
  -1  -3  -9   85.75    5.21
  -1   3  -9   88.32    6.44
  -1  -3  -9   83.22    4.54
   1  -3  10  198.04   11.37
   1  -3  10  205.83   10.12
   1  -3  10  177.49    7.72
   1  -3  10  182.73   10.17
   1   3  10  197.85   13.29
   1   3  10  181.44   12.91
  -1   3 -10  190.03   12.74
  -1  -3 -10  204.55    9.01
  -1  -3 -10  199.96   10.39
   1  -3  11  270.84   11.34
   1  -3  11  297.59   17.13
   1  -3  11  259.07   15.58
   1   3  11  245.96   15.24
   1   3  11  275.49   18.16
   1   3  11  260.61   19.59
   1   3  11  223.14   17.30
   1   3  11  245.61   17.67
   1  -3  11  267.85   13.38
   1  -3  11  284.38   16.95
  -1   3 -11  269.27   19.36
  -1   3 -11  291.63   18.38
  -1  -3 -11  279.93   14.44
  -1  -3 -11  236.70   12.14
   1  -3  12    1.03    0.50
   1   3  12    2.17    0.96
   1  -3  12    2.73    0.44
   1  -3  12    0.39    0.36
   1  -3  12    0.68    0.55
   1   3  12    0.03    0.82
   1   3  12    1.07    0.90
   1   3  12    0.00    0.71
   1  -3  12    0.59    0.45
   1   3  12    0.24    0.56
  -1   3 -12    0.47    0.62
  -1  -3 -12    1.25    0.46
  -1   3 -12    2.99    0.91
  -1  -3 -12    1.33    0.58
  -1   3 -12   -0.09    0.69
   1   3  13   92.02    8.74
   1  -3  13  103.55    7.47
   1   3  13   88.00    9.07
   1  -3  13  117.15    8.42
   1  -3  13  100.28    6.60
   1   3  13   95.31    8.87
   1   3  13   88.84    7.97
   1   3  13   83.60    6.37
   1  -3  13   92.62    7.11
  -1   3 -13   82.94    6.79
  -1   3 -13   91.17    7.58
  -1   3 -13  100.88    7.42
  -1  -3 -13  101.77    6.62
  -1  -3 -13   96.13    6.12
   1  -3  14  392.18   23.32
   1  -3  14  383.60   24.92
   1   3  14  288.95   26.33
   1   3  14  383.97   30.21
   1   3  14  346.27   22.87
   1   3  14  378.90   27.70
   1   3  14  373.32   30.80
   1  -3  14  373.29   23.89
  -1   3 -14  391.29   29.15
  -1   3 -14  414.14   28.02
  -1  -3 -14  404.99   22.84
  -1  -3 -14  397.32   23.45
  -1   3 -14  349.46   24.24
   1   3  15    5.20    1.80
   1  -3  15    4.52    1.25
   1  -3  15    3.95    1.20
   1  -3  15    3.58    1.18
   1   3  15    2.85    1.03
   1   3  15    3.03    1.36
   1   3  15    2.64    1.18
   1   3  15    5.01    1.77
  -1   3 -15    3.50    1.61
  -1   3 -15    3.59    1.43
  -1  -3 -15    3.96    0.98
  -1  -3 -15    2.83    1.01
  -1   3 -15    2.54    1.22
   1  -3  16   14.69    2.36
   1   3  16   11.49    2.85
   1  -3  16   16.38    1.91
   1  -3  16   13.35    2.45
   1   3  16   14.31    3.70
   1   3  16   14.14    3.41
   1   3  16   14.73    3.46
   1   3  16   12.68    2.15
  -1   3 -16   16.75    2.40
  -1   3 -16   13.39    2.36
  -1   3 -16   15.09    3.03
  -1  -3 -16   15.14    1.97
  -1  -3 -16   16.04    2.13
   1   3  17    1.05    1.36
   1   3  17    0.64    0.73
   1  -3  17    1.86    0.92
   1  -3  17    1.35    0.93
   1  -3  17    0.03    0.67
   1  -3  17    2.16    0.95
   1   3  17    4.00    1.54
   1   3  17    0.47    0.98
   1   3  17    0.09    0.97
  -1   3 -17    0.78    1.19
  -1   3 -17    0.50    1.03
  -1  -3 -17    2.19    0.72
  -1   3 -17    0.60    0.79
   1  -3  18   41.10    4.19
   1  -3  18   45.48    5.20
   1  -3  18   47.11    5.22
   1   3  18   36.06    4.29
   1   3  18   43.38    6.59
   1   3  18   35.79    5.20
   1   3  18   39.25    5.35
   1   3  18   37.25    7.22
   1  -3  18   44.81    5.54
  -1   3 -18   40.50    5.10
  -1   3 -18   39.37    4.55
  -1   3 -18   46.46    4.73
  -1  -3 -18   44.38    4.27
   1  -3  19   24.13    3.10
   1  -3  19   16.17    2.62
   1  -3  19   26.77    4.23
   1   3  19   23.02    5.24
   1   3  19   17.75    4.18
   1   3  19   20.12    4.73
   1   3  19   21.67    4.66
   1  -3  19   26.88    3.71
  -1   3 -19   17.35    2.90
  -1   3 -19   24.90    3.44
  -1   3 -19   20.38    3.39
   1  -3  20   59.31    5.95
   1  -3  20   75.28    8.11
   1  -3  20   72.85    9.28
   1  -3  20   67.42    7.78
   1   3  20   63.17    8.46
   1   3  20   69.60    9.85
   1   3  20   70.36    9.38
   1   3  20   59.86   10.42
  -1   3 -20   60.77    6.52
  -1   3 -20   70.11    7.17
  -1   3 -20   63.12    6.14
   1  -3  21  144.44   12.65
   1  -3  21  126.08   14.12
   1  -3  21  171.35   16.42
   1   3  21  157.88   17.85
   1   3  21  146.59   15.21
   1   3  21  156.64   17.58
  -1   3 -21  153.79   13.65
   1  -3  22   72.88    8.49
   1  -3  22   68.85    8.62
   1   3  22   71.92   10.56
   1   3  22   61.80    7.84
   1   3  22   56.37    8.21
  -1   3 -22   65.78    6.84
  -1   3 -22   61.45    6.87
   1  -3  23   41.45    5.81
   1   3  23   35.58    6.61
   1   3  23   40.74    6.63
   1   3  23   30.16    5.78
   1  -3  23   40.51    6.05
  -1   3 -23   37.73    5.38
   1  -3  24    5.38    1.85
   1  -3  24    2.77    1.74
   1   3  24    4.17    2.28
   1   3  24    3.39    1.97
   1   3  24    4.68    1.98
   1   3  24    0.48    1.09
  -1   3 -24    4.57    1.63
   1  -3  25    8.17    2.48
   1  -3  25    6.51    2.43
   1   3  25    7.78    2.62
   1   3  25    8.98    2.72
   1   3  25    6.20    3.06
  -1   3 -25    6.66    2.17
   1  -3  26    1.14    1.57
   1   3  26    0.35    1.95
   1   3  26    3.29    1.69
   1  -3  26    2.77    1.47
  -1   3 -26    2.83    1.28
  -1  -3 -26    3.02    1.41
   1  -3  27   36.43    4.72
   1  -3  27   36.69    5.13
   1   3  27   29.40    5.31
  -1   3 -27   33.72    4.11
  -1  -3 -27   33.96    4.65
   1  -3  28    5.83    1.53
   1   3  28    1.29    1.78
   1  -4 -27   19.58    3.16
   1   4 -27   17.80    3.31
  -1   4  27   13.07    3.37
   1   4 -26   28.32    3.88
   1   4 -26   24.62    3.29
   1  -4 -26   27.80    4.27
  -1   4  26   23.89    4.71
  -1   4  26    0.10    4.36
  -1  -4  26   30.05    3.95
  -1  -4  26   31.30    4.92
   1  -4 -25   53.91    7.47
   1   4 -25   56.80    5.92
   1   4 -25   53.35    6.42
  -1  -4  25   54.94    6.73
  -1  -4  25   59.56    6.74
  -1   4  25   50.54    7.99
   1  -4 -24   20.51    4.09
   1   4 -24   16.70    3.51
   1   4 -24   20.26    3.23
  -1   4  24   13.01    3.73
  -1  -4  24   16.79    2.57
  -1  -4  24   17.82    3.31
   1  -4 -23   39.59    6.72
   1   4 -23   41.64    5.62
   1   4 -23   41.00    5.56
  -1  -4  23   39.67    4.45
  -1  -4  23   39.80    5.66
   1  -4 -22  170.09   17.25
   1   4 -22  177.57   16.67
   1   4 -22  171.66   16.86
   1   4 -22  180.95   17.61
  -1  -4  22  181.57   16.83
  -1  -4  22  169.58   15.85
   1   4 -21    3.75    1.65
   1   4 -21    2.52    1.61
   1   4 -21    2.02    1.80
   1  -4 -21    4.43    2.15
  -1  -4  21    2.72    1.43
  -1  -4  21    1.53    1.47
   1   4 -20  326.13   29.17
   1   4 -20  300.88   28.21
   1   4 -20  337.71   28.98
   1   4 -20  300.86   26.74
  -1   4  20  283.31   30.17
  -1  -4  20  299.42   24.41
  -1  -4  20  319.44   26.02
  -1  -4  20  289.45   25.46
  -1   4  20  258.36   31.14
   1   4 -19   52.46    6.35
   1   4 -19   49.84    6.41
   1   4 -19   53.25    6.28
   1   4 -19   48.42    6.95
  -1   4  19   47.99    8.20
  -1  -4  19   47.84    5.56
  -1  -4  19   50.66    6.20
  -1  -4  19   50.95    5.71
  -1   4  19   50.42    6.25
  -1   4  19   41.33    7.94
   1   4 -18  108.07    9.16
   1   4 -18  116.49   11.82
   1   4 -18  126.09   11.58
   1   4 -18  109.39   10.69
   1   4 -18  114.33   10.87
  -1   4  18  117.54   11.25
  -1  -4  18  117.30    9.93
  -1  -4  18  114.91   10.02
  -1  -4  18  113.50   10.41
  -1   4  18  108.22   12.49
  -1   4  18   93.17   11.74
   1  -4 -17   70.48    8.25
   1   4 -17   80.06    9.07
   1   4 -17   77.75    7.12
   1   4 -17   79.77    8.19
   1   4 -17   80.05    8.29
   1   4 -17   80.26    8.54
  -1   4  17   63.35    8.78
  -1   4  17   83.09    8.37
  -1   4  17   83.48   10.65
  -1  -4  17   86.93    8.51
  -1  -4  17   82.75    7.61
  -1  -4  17   80.63    7.13
   1  -4 -16  174.24   11.94
   1  -4 -16  144.91   13.43
   1   4 -16  151.50   12.86
   1   4 -16  162.96   12.96
   1   4 -16  171.35   14.52
   1   4 -16  162.84   14.22
   1   4 -16  159.15   14.09
   1   4 -16  154.78   12.68
   1  -4 -16  143.82   12.97
  -1   4  16  177.11   14.88
  -1  -4  16  161.84   12.92
  -1  -4  16  158.98   12.10
  -1  -4  16  155.72   12.25
  -1   4  16  128.08   13.56
  -1   4  16  169.43   18.10
   1  -4 -15    5.84    2.09
   1  -4 -15    8.72    2.09
   1   4 -15   11.21    1.92
   1   4 -15    9.46    2.25
   1   4 -15   12.44    2.62
   1   4 -15   11.13    1.78
   1   4 -15   12.04    2.35
   1   4 -15    9.68    2.41
   1  -4 -15   10.73    1.86
  -1   4  15   15.29    3.20
  -1  -4  15   12.72    2.26
  -1  -4  15   12.61    1.57
  -1  -4  15   11.09    1.85
  -1   4  15   12.45    2.36
  -1   4  15    9.35    2.43
   1  -4 -14    0.73    0.78
   1   4 -14    0.24    0.96
   1  -4 -14    0.33    0.80
   1   4 -14    0.77    0.95
   1   4 -14    2.26    1.08
   1   4 -14    0.69    1.02
   1   4 -14    2.57    0.94
   1   4 -14    2.91    1.07
   1  -4 -14   -0.01    0.87
  -1   4  14    2.92    1.02
  -1   4  14    0.54    1.36
  -1   4  14    2.24    0.97
  -1  -4  14    0.50    0.74
  -1  -4  14    1.21    0.96
  -1  -4  14    3.23    0.84
   1  -4 -13   13.21    1.70
   1   4 -13   11.12    1.81
   1   4 -13   12.44    2.26
   1   4 -13   16.16    2.31
   1   4 -13   12.95    2.28
   1   4 -13   14.36    2.34
   1   4 -13   12.39    2.12
   1  -4 -13   10.85    1.83
  -1   4  13   12.04    1.75
  -1   4  13   14.07    2.36
  -1   4  13   14.58    3.26
  -1  -4  13   13.50    1.75
  -1  -4  13   14.27    1.93
  -1  -4  13   13.35    2.13
   1  -4 -12  155.74    9.58
   1  -4 -12  138.26    9.26
   1   4 -12  140.57    9.48
   1   4 -12  108.95   10.14
   1   4 -12  148.25   11.06
   1   4 -12  150.33   11.12
   1   4 -12  144.32   11.97
   1   4 -12  141.96   10.07
  -1   4  12  149.60   11.92
  -1   4  12  133.85    9.90
  -1  -4  12  146.81    9.49
  -1   4  12  159.73   13.07
  -1  -4  12  151.26    9.62
  -1  -4  12  161.29   10.44
   1  -4 -11  155.12    9.79
   1  -4 -11  169.42   10.15
   1   4 -11  174.00   12.94
   1   4 -11  154.32   11.87
   1   4 -11  160.82   10.47
   1   4 -11  172.05   11.79
   1   4 -11  160.62   12.09
   1   4 -11  177.46   11.95
  -1   4  11  157.87   12.45
  -1  -4  11  169.65   10.52
  -1  -4  11  191.62   10.96
  -1   4  11  150.23   11.03
  -1  -4  11  170.45   10.62
  -1   4  11  175.99   14.59
   1  -4 -10  361.96   19.49
   1  -4 -10  340.83   18.38
   1   4 -10  347.91   24.16
   1   4 -10  347.52   22.62
   1   4 -10  357.56   24.43
   1   4 -10  366.03   22.39
   1   4 -10  325.27   18.86
   1   4 -10  378.73   24.58
  -1   4  10  396.41   27.21
  -1   4  10  344.22   23.53
  -1   4  10  320.75   20.24
  -1  -4  10  379.90   19.57
  -1  -4  10  370.18   19.49
   1  -4  -9   14.54    1.44
   1   4  -9   14.78    2.01
   1   4  -9   15.01    1.66
   1   4  -9   11.56    2.01
   1   4  -9   12.66    2.15
   1   4  -9   14.28    1.43
   1  -4  -9   15.91    1.71
  -1   4   9   14.40    1.73
  -1   4   9   16.39    2.15
  -1  -4   9   14.86    1.34
  -1  -4   9   18.49    1.87
   1  -4  -8   52.36    3.15
   1   4  -8   53.30    3.57
   1  -4  -8   53.96    3.85
  -1  -4   8   53.95    3.10
  -1  -4   8   57.44    3.80
  -1   4   8   50.57    3.64
   1   4  -7  823.21   38.37
   1  -4  -7  850.74   40.33
   1  -4  -7  847.53   37.36
  -1   4   7  886.55   43.58
  -1  -4   7  823.58   37.68
  -1  -4   7  828.35   34.19
   1  -4  -6  141.46    6.39
   1  -4  -6  163.20    8.50
   1   4  -6  157.38    7.54
  -1   4   6  184.47    9.29
  -1  -4   6  167.20    7.55
  -1  -4   6  150.29    7.73
  -1  -4   6  168.59    4.13
   1  -4  -5 1016.26   39.93
   1  -4  -5  956.78   41.20
   1   4  -5  914.48   36.01
   1   4  -5  873.65   40.87
  -1   4   5 1029.61   43.97
  -1  -4   5  977.29   37.22
  -1  -4   5  982.35   26.09
   1  -4  -4  272.24   10.71
   1   4  -4  320.91   11.94
   1   4  -4  307.82   14.49
   1  -4  -4  340.59   15.21
  -1   4   4  316.14   13.27
  -1  -4   4  318.65   12.55
  -1  -4   4  318.94    9.35
   1  -4  -3  354.85   13.51
   1   4  -3  382.66   17.94
   1   4  -3  362.01   11.74
   1  -4  -3  313.88   15.17
  -1   4   3  363.15   14.05
  -1  -4   3  372.46   11.34
  -1  -4   3  300.67   11.57
   1  -4  -2 1228.77   50.79
   1   4  -2 1155.40   33.25
   1   4  -2 1197.94   56.12
   1  -4  -2 1251.47   47.32
  -1   4   2 1151.44   43.57
  -1  -4   2 1376.20   44.87
   1  -4  -1  410.67   16.55
   1   4  -1  388.87    8.83
   1   4  -1  373.99   17.35
  -1  -4   1  385.81   13.17
  -1   4   1  419.21   14.85
   1   4   0  167.34    8.86
   1  -4   0  169.24    7.19
  -1   4   0  154.56    5.54
  -1  -4   0  163.72    6.18
   1  -4   1  124.38    5.62
   1   4   1  112.26    6.45
  -1   4  -1  112.39    4.04
  -1  -4  -1  125.34    5.20
   1  -4   2   42.57    2.35
   1   4   2   45.05    3.31
  -1  -4  -2   47.79    2.21
  -1   4  -2   42.65    1.66
   1  -4   3   34.61    1.34
   1  -4   3   39.34    2.20
   1   4   3   32.14    2.59
  -1  -4  -3   37.13    2.18
   1  -4   4  313.65   12.81
   1  -4   4  314.97   10.40
   1   4   4  285.34   15.59
  -1  -4  -4  306.09   13.65
   1  -4   5  137.03    7.25
   1  -4   5  138.31    5.93
   1   4   5  136.52    8.50
   1  -4   5  131.20    4.83
  -1  -4  -5  134.90    6.88
   1  -4   6  505.00   23.33
   1  -4   6  485.32   19.04
   1  -4   6  507.12   18.51
   1   4   6  475.98   27.39
  -1  -4  -6  503.02   23.71
  -1   4  -6  471.37   24.12
   1  -4   7    1.18    0.67
   1  -4   7    1.12    0.35
   1   4   7    1.70    0.86
   1  -4   7    1.35    0.38
  -1   4  -7    1.64    0.71
  -1  -4  -7    0.63    0.68
   1  -4   8 1744.22   66.56
   1  -4   8 1720.35   87.01
   1  -4   8 1713.77   70.74
   1   4   8 1639.30  100.17
  -1   4  -8 1718.59   88.16
  -1  -4  -8 1723.91   83.62
   1  -4   9  108.26    7.10
   1  -4   9   89.02    6.08
   1  -4   9  119.73    5.29
   1   4   9  134.15   10.34
   1   4   9  120.89    9.09
   1   4   9  116.32    7.61
   1  -4   9  127.01    6.93
   1  -4   9  122.76    6.13
  -1   4  -9  125.09    8.55
  -1  -4  -9  131.09    7.95
  -1   4  -9  120.89    8.88
   1  -4  10  300.95   12.93
   1  -4  10  304.86   15.10
   1  -4  10  282.94   16.87
   1   4  10  281.75   20.96
   1   4  10  290.63   22.21
   1   4  10  295.48   21.15
   1   4  10  275.01   17.37
   1   4  10  292.51   20.66
   1  -4  10  293.61   17.57
   1  -4  10  301.33   17.46
  -1   4 -10  296.53   21.93
  -1   4 -10  313.78   19.57
  -1  -4 -10  304.37   17.14
  -1   4 -10  268.96   18.65
   1  -4  11  653.15   35.97
   1  -4  11  625.90   32.30
   1  -4  11  477.83   34.22
   1  -4  11  600.69   34.68
   1   4  11  626.33   44.65
   1   4  11  641.13   42.92
   1   4  11  587.41   36.11
   1   4  11  599.28   44.42
   1   4  11  613.79   45.76
  -1   4 -11  646.47   38.90
  -1   4 -11  578.02   37.82
  -1   4 -11  607.95   42.74
  -1  -4 -11  633.85   33.28
   1  -4  12   57.09    4.74
   1  -4  12   59.58    5.27
   1   4  12   52.98    6.67
   1   4  12   51.26    5.75
   1   4  12   54.56    5.92
   1   4  12   52.46    5.35
   1   4  12   50.53    4.60
   1  -4  12   62.71    5.41
   1  -4  12   60.01    4.13
  -1   4 -12   56.80    5.47
  -1   4 -12   54.24    5.00
  -1  -4 -12   62.93    4.97
  -1   4 -12   60.01    6.41
   1  -4  13   11.54    1.44
   1  -4  13   11.65    1.54
   1  -4  13   14.99    2.02
   1  -4  13   14.86    2.17
   1   4  13   11.80    2.77
   1   4  13    8.74    2.94
   1   4  13   10.06    1.90
   1   4  13    7.93    2.17
   1   4  13    9.84    1.87
  -1   4 -13    8.49    2.00
  -1   4 -13    9.38    1.84
  -1   4 -13   12.09    2.27
  -1  -4 -13   13.20    1.75
   1  -4  14   32.90    3.73
   1  -4  14   38.61    3.52
   1  -4  14   36.19    4.28
   1   4  14   33.17    4.88
   1   4  14   31.20    4.90
   1   4  14   32.26    5.04
   1   4  14   30.29    5.47
   1   4  14   28.96    3.45
   1  -4  14   33.16    3.86
  -1   4 -14   34.23    4.62
  -1   4 -14   35.88    4.59
  -1   4 -14   31.88    3.61
  -1  -4 -14   34.36    3.36
   1  -4  15  101.71    7.70
   1  -4  15   94.74    8.04
   1  -4  15   95.36    8.39
   1   4  15   85.64   11.32
   1   4  15   93.81   10.50
   1   4  15   93.06    7.78
   1   4  15   87.17   10.13
   1   4  15   93.21   10.97
  -1   4 -15   90.38    8.38
  -1   4 -15  102.66   10.20
  -1   4 -15   93.87    8.81
  -1  -4 -15   98.41    7.44
   1  -4  16   33.36    3.78
   1  -4  16   36.93    3.97
   1   4  16   28.43    5.31
   1   4  16   25.89    4.67
   1   4  16   29.75    4.20
   1   4  16   29.71    6.09
   1   4  16   25.93    3.41
   1  -4  16   31.31    3.33
  -1   4 -16   27.60    3.56
  -1   4 -16   32.83    4.77
  -1  -4 -16   29.74    2.75
  -1   4 -16   33.40    4.66
   1  -4  17   69.50    7.13
   1  -4  17   68.92    6.87
   1   4  17   64.03    8.49
   1   4  17   57.83    9.04
   1   4  17   72.16    9.97
   1   4  17   66.50    9.51
   1   4  17   58.52    6.05
   1  -4  17   74.24    7.08
  -1   4 -17   63.83    6.56
  -1   4 -17   69.12    7.97
  -1   4 -17   68.81    8.01
  -1  -4 -17   88.05    7.99
   1  -4  18   42.64    5.43
   1  -4  18   30.65    3.73
   1  -4  18   43.27    4.99
   1   4  18   38.52    6.90
   1   4  18   38.91    6.81
   1   4  18   37.45    5.78
   1   4  18   35.89    7.36
   1  -4  18   43.89    5.09
  -1   4 -18   33.98    4.16
  -1   4 -18   43.59    5.59
  -1   4 -18   47.68    6.03
  -1  -4 -18   48.08    5.72
   1  -4  19   75.47    7.07
   1  -4  19   87.22    9.64
   1  -4  19   97.34    9.69
   1   4  19   79.42   12.62
   1   4  19   87.38   11.65
   1   4  19   76.08    8.26
   1   4  19   83.90   11.54
   1  -4  19   96.40    9.05
  -1   4 -19   82.66    7.80
  -1   4 -19   90.39   10.68
  -1   4 -19   90.19    9.42
   1  -4  20   12.81    3.69
   1  -4  20   15.13    2.88
   1   4  20   11.89    4.34
   1   4  20   14.31    4.10
   1   4  20    9.67    3.11
   1   4  20   12.84    4.22
   1  -4  20   18.72    3.57
  -1   4 -20   14.99    2.66
  -1   4 -20   12.78    3.49
  -1   4 -20   13.87    2.79
   1  -4  21    0.66    1.14
   1  -4  21    0.52    0.93
   1   4  21    0.48    1.16
   1   4  21    0.74    1.58
   1   4  21    0.10    1.71
   1   4  21    1.03    1.43
  -1   4 -21    0.94    0.99
  -1   4 -21    2.12    0.90
   1  -4  22   82.10    8.76
   1   4  22   77.87   10.71
   1   4  22   75.47   11.03
   1   4  22   78.04   12.01
   1   4  22   66.73    9.12
   1  -4  22   84.08    8.28
  -1   4 -22   72.38    7.80
  -1   4 -22   80.73    8.78
   1  -4  23    4.14    1.76
   1  -4  23    2.94    2.03
   1   4  23    4.63    2.54
   1   4  23    5.16    2.25
  -1   4 -23    3.25    1.49
  -1   4 -23    3.05    1.58
   1  -4  24   55.06    7.02
   1  -4  24   58.69    6.83
   1   4  24   46.89    7.89
   1   4  24   52.98    8.03
  -1   4 -24   51.50    6.29
  -1  -4 -24   57.25    7.45
  -1   4 -24   51.22    6.12
   1  -4  25    3.43    1.76
   1   4  25    1.03    1.78
   1   4  25    1.41    2.22
   1  -4  25    4.01    1.61
  -1   4 -25    4.27    1.46
  -1  -4 -25    3.31    1.68
   1  -4  26   17.74    3.43
   1   4  26   12.40    4.06
   1  -4  26   18.60    3.16
  -1   4 -26   17.08    2.91
  -1  -4 -26   16.06    3.28
   1  -4  27    6.33    1.86
   1  -4  27    5.55    1.72
   1   4  27    3.13    2.16
  -1  -4 -27    5.16    1.66
  -1   4 -27    3.78    1.67
   1  -5 -27    0.31    0.76
   1  -5 -26    2.34    0.89
   1   5 -26   -0.57    0.72
   1   5 -26   -0.33    0.66
  -1  -5  26    1.08    0.74
  -1  -5  26    0.23    0.73
  -1   5  26    0.03    0.94
   1   5 -25    3.42    1.39
   1   5 -25    3.46    1.62
   1  -5 -25    4.09    1.87
  -1   5  25    0.07    1.88
  -1   5  25    1.15    1.96
  -1  -5  25    4.75    1.87
  -1  -5  25    5.79    1.55
   1  -5 -24   12.41    2.88
   1   5 -24   11.50    2.31
   1   5 -24    8.77    2.37
  -1  -5  24   11.84    2.24
  -1  -5  24    9.73    2.30
  -1   5  24    7.48    3.07
  -1   5  24   -0.06    2.73
   1   5 -23    2.75    1.02
   1   5 -23    0.75    1.01
   1   5 -23    0.08    0.67
   1  -5 -23    0.35    1.27
  -1   5  23    0.10    1.38
  -1   5  23    0.78    1.24
  -1  -5  23    0.76    0.94
  -1  -5  23    0.68    0.97
   1  -5 -22   -0.06    1.23
   1   5 -22   -0.48    0.97
   1   5 -22    0.05    0.60
   1   5 -22    0.51    0.86
  -1  -5  22    2.67    0.88
  -1  -5  22    0.51    0.86
  -1   5  22   -0.05    1.18
  -1   5  22   -0.30    1.12
   1   5 -21    4.42    1.88
   1   5 -21    3.32    1.90
   1   5 -21    4.89    2.08
   1  -5 -21    6.56    2.67
  -1   5  21    4.22    2.54
  -1  -5  21    4.19    1.74
  -1  -5  21    6.57    1.81
  -1   5  21    2.69    2.64
   1   5 -20    3.55    1.85
   1   5 -20    5.58    1.80
   1   5 -20    3.18    1.90
   1  -5 -20    3.31    2.55
  -1  -5  20    2.82    1.72
  -1  -5  20    4.77    1.54
   1  -5 -19   57.83    9.26
   1   5 -19   49.35    6.73
   1   5 -19   54.95    6.39
   1   5 -19   49.76    7.23
   1   5 -19   53.58    6.76
  -1  -5  19   55.73    6.43
  -1  -5  19   49.26    6.19
  -1  -5  19   52.69    5.69
  -1   5  19   54.66    7.02
  -1   5  19   50.66    9.50
   1  -5 -18    9.23    3.20
   1   5 -18    9.00    2.54
   1   5 -18    7.52    2.27
   1   5 -18    7.21    2.24
   1   5 -18    9.05    1.87
  -1   5  18    6.36    3.23
  -1  -5  18    7.63    2.27
  -1  -5  18    8.18    2.10
  -1  -5  18    7.61    1.39
  -1   5  18    6.91    2.54
   1   5 -17   55.93    6.74
   1  -5 -17   58.35    8.43
   1   5 -17   57.31    6.89
   1   5 -17   52.91    6.51
   1   5 -17   54.90    6.42
   1   5 -17   51.37    5.75
   1  -5 -17   55.78    5.75
  -1   5  17   57.13    7.12
  -1   5  17   45.32    8.45
  -1  -5  17   53.39    5.53
  -1  -5  17   53.24    4.99
  -1  -5  17   55.08    6.66
   1  -5 -16    6.34    1.67
   1   5 -16    6.04    1.96
   1   5 -16    5.03    1.71
   1   5 -16    5.45    1.35
   1   5 -16    6.39    2.01
   1   5 -16    3.23    1.97
   1   5 -16    6.38    1.95
   1  -5 -16    7.06    2.50
  -1  -5  16    5.33    1.45
  -1  -5  16    6.42    1.83
  -1  -5  16    3.35    1.75
  -1   5  16    4.68    2.48
  -1   5  16    7.02    2.06
   1  -5 -15   12.05    2.03
   1   5 -15    6.33    2.52
   1   5 -15    9.50    1.79
   1   5 -15    9.52    2.23
   1   5 -15    9.17    2.24
   1   5 -15   13.00    2.45
   1   5 -15    7.35    2.50
   1  -5 -15   10.23    3.19
  -1  -5  15   10.20    2.31
  -1  -5  15    9.08    1.81
  -1  -5  15    9.02    2.05
  -1   5  15   10.82    2.63
  -1   5  15   12.10    2.90
   1  -5 -14  159.96   16.51
   1   5 -14  151.19   13.55
   1   5 -14  156.11   13.77
   1   5 -14  147.78   13.88
   1   5 -14  169.52   14.19
   1   5 -14  162.19   13.59
   1   5 -14  165.60   13.64
   1  -5 -14  175.67   12.50
  -1  -5  14  158.56   12.74
  -1  -5  14  165.81   11.84
  -1  -5  14  152.06   12.21
  -1   5  14  144.27   14.75
  -1   5  14  161.41   15.44
   1  -5 -13  130.47   13.35
   1  -5 -13  138.38   10.30
   1   5 -13  117.21   11.34
   1   5 -13  122.70   11.51
   1   5 -13  124.34   10.89
   1   5 -13  119.10   10.67
   1   5 -13  131.62   10.91
   1   5 -13  124.95   10.52
  -1   5  13  129.36   12.54
  -1  -5  13  130.87   10.24
  -1  -5  13  129.07    9.48
  -1  -5  13  126.13    9.49
  -1   5  13  117.48   11.96
   1   5 -12    8.55    1.42
   1   5 -12    7.23    1.84
   1   5 -12    7.56    2.03
   1   5 -12    8.23    1.97
   1   5 -12   11.93    1.99
   1   5 -12    5.49    2.11
   1  -5 -12   10.56    1.82
   1  -5 -12    9.19    2.35
  -1  -5  12    8.85    1.53
  -1  -5  12    7.28    1.49
  -1  -5  12    5.90    1.60
  -1   5  12    7.52    2.13
  -1   5  12    7.68    2.19
   1   5 -11    9.03    1.26
   1  -5 -11   10.53    1.77
   1   5 -11    7.59    2.01
   1  -5 -11   10.33    2.39
   1   5 -11    8.36    2.00
   1   5 -11    5.67    1.99
   1   5 -11    7.29    1.52
   1  -5 -11    8.95    1.33
   1   5 -11   10.79    1.89
   1   5 -11    9.29    1.48
  -1  -5  11    9.02    1.51
  -1  -5  11    8.57    1.59
  -1   5  11    9.43    2.18
  -1  -5  11   11.74    1.51
  -1   5  11   10.62    2.09
   1  -5 -10   16.63    1.56
   1  -5 -10   21.07    2.49
   1   5 -10   17.85    1.94
   1   5 -10   18.53    2.51
   1   5 -10   18.65    2.78
   1   5 -10   21.23    2.95
   1   5 -10   14.75    1.73
   1   5 -10   14.96    2.53
   1   5 -10   25.57    2.82
   1  -5 -10   19.16    2.51
  -1   5  10   20.58    2.37
  -1   5  10   20.76    2.67
  -1  -5  10   19.48    1.94
  -1  -5  10   19.30    1.91
  -1  -5  10   21.82    2.21
   1  -5  -9    8.06    1.55
   1   5  -9    8.94    1.83
   1   5  -9    4.96    1.22
   1   5  -9   10.07    1.27
   1   5  -9   12.89    1.78
   1   5  -9    7.52    1.54
   1   5  -9    6.92    1.88
   1  -5  -9    8.11    1.96
   1  -5  -9    8.75    1.12
  -1  -5   9    8.25    1.12
  -1  -5   9    9.56    1.52
  -1  -5   9    7.54    1.21
  -1   5   9    9.94    1.80
  -1   5   9   10.09    1.65
   1  -5  -8  180.06    9.45
   1   5  -8  177.08   13.57
   1   5  -8  174.69   11.75
   1   5  -8  166.03   11.67
   1   5  -8  169.30   12.34
   1   5  -8  182.04   13.11
   1   5  -8  175.66    9.93
   1  -5  -8  169.60   10.28
   1  -5  -8  183.93   13.49
  -1   5   8  173.96   12.71
  -1   5   8  182.89   13.92
  -1   5   8  177.16   11.38
  -1  -5   8  177.13    9.21
  -1  -5   8  185.37   10.81
   1   5  -7  110.46    8.66
   1  -5  -7  116.24    5.99
   1  -5  -7  120.39    7.98
   1   5  -7  133.95    9.39
   1   5  -7  126.66    7.82
   1   5  -7  120.80    8.77
   1   5  -7  119.93    6.87
   1   5  -7  130.93    9.32
   1  -5  -7  127.14    9.47
  -1   5   7  131.75    9.14
  -1  -5   7  122.03    6.76
  -1   5   7  132.18    9.91
  -1  -5   7  123.36    6.36
  -1   5   7  129.95    8.08
   1   5  -6   91.58    4.83
   1   5  -6   86.71    6.09
   1  -5  -6   77.27    4.05
   1  -5  -6   85.08    6.20
   1  -5  -6   88.49    6.94
  -1  -5   6   91.49    4.93
  -1   5   6   91.20    7.16
  -1   5   6   93.32    7.16
  -1   5   6   89.54    5.41
   1  -5  -5  746.44   37.49
   1   5  -5  622.40   33.05
   1   5  -5  697.08   28.82
   1  -5  -5  678.67   28.29
  -1  -5   5  693.26   30.69
  -1   5   5  681.22   33.81
  -1  -5   5  693.79   23.32
   1  -5  -4  923.73   36.77
   1  -5  -4  876.95   42.55
   1   5  -4  802.91   41.01
   1   5  -4  780.20   29.32
  -1   5   4  757.70   35.00
  -1  -5   4  864.51   30.47
  -1  -5   4  795.80   35.18
   1   5  -3   54.45    4.11
   1  -5  -3   57.09    3.93
   1   5  -3   57.71    2.33
  -1   5   3   52.53    3.10
  -1  -5   3   50.11    2.33
   1  -5  -2  394.29   19.24
   1   5  -2  400.46   21.64
   1   5  -2  400.82   11.29
  -1   5   2  382.08   16.59
  -1  -5   2  392.02   15.43
   1  -5  -1   29.68    2.32
   1   5  -1   29.61    2.51
  -1  -5   1   37.61    2.12
  -1   5   1   27.67    1.60
   1   5   0   16.07    1.84
   1  -5   0   18.86    1.71
  -1  -5   0   19.95    1.30
  -1   5   0   19.47    1.27
   1   5   1  198.12   11.70
   1  -5   1  205.86    9.72
  -1   5  -1  183.40    7.56
  -1  -5  -1  199.19    8.81
   1   5   2   43.75    3.46
   1  -5   2   44.76    2.69
  -1  -5  -2   46.28    2.72
  -1   5  -2   39.84    1.97
   1  -5   3  184.25    6.80
   1   5   3  191.18   11.18
   1  -5   3  196.26    9.29
  -1  -5  -3  190.68    9.35
   1   5   4  345.10   21.07
   1  -5   4  377.38   14.26
   1  -5   4  383.60   17.50
  -1  -5  -4  353.13   17.62
   1  -5   5   35.55    2.24
   1   5   5   28.42    3.01
   1  -5   5   35.46    1.81
   1  -5   5   32.67    2.95
  -1   5  -5   29.91    2.37
  -1  -5  -5   31.82    2.71
   1   5   6   73.58    5.34
   1   5   6   74.96    5.91
   1  -5   6   78.15    5.09
   1  -5   6   80.96    5.37
   1  -5   6   76.38    3.45
   1  -5   6   79.24    3.99
   1   5   6   67.55    5.68
  -1   5  -6   67.35    6.53
  -1  -5  -6   73.44    4.90
  -1   5  -6   71.58    4.69
   1   5   7   37.98    3.98
   1   5   7   44.61    4.18
   1   5   7   40.92    3.55
   1  -5   7   41.74    3.48
   1  -5   7   41.85    2.35
   1  -5   7   38.96    3.09
   1  -5   7   41.41    2.41
   1   5   7   34.93    4.16
  -1  -5  -7   39.14    3.32
  -1   5  -7   41.09    4.46
  -1   5  -7   40.74    3.11
  -1   5  -7   37.51    3.64
   1  -5   8   17.74    1.93
   1   5   8   14.65    2.72
   1   5   8   15.96    2.62
   1   5   8   17.51    2.06
   1   5   8   18.17    2.69
   1  -5   8   19.04    2.32
   1  -5   8   20.22    1.45
   1  -5   8   18.84    1.51
   1  -5   8   17.21    1.90
   1   5   8   17.88    2.81
  -1  -5  -8   16.51    2.25
  -1  -5  -8   14.71    2.30
  -1   5  -8   17.98    2.08
  -1   5  -8   16.02    2.33
  -1   5  -8   17.17    2.81
   1   5   9  387.06   28.68
   1   5   9  372.12   28.60
   1  -5   9  363.53   20.85
   1  -5   9  368.77   17.99
   1   5   9  323.22   24.84
   1   5   9  377.61   27.07
   1   5   9  338.70   21.33
   1  -5   9  337.53   19.30
   1  -5   9  358.92   21.36
   1  -5   9  396.64   17.19
  -1  -5  -9  344.25   24.04
  -1   5  -9  359.04   24.52
  -1   5  -9  356.82   21.89
  -1   5  -9  366.57   27.15
  -1  -5  -9  343.81   20.55
   1   5  10  166.35   13.48
   1   5  10  146.27   11.64
   1  -5  10  152.44   10.20
   1  -5  10  148.92   10.02
   1   5  10  138.14   12.25
   1   5  10  158.45   14.31
   1   5  10  143.53   10.53
   1   5  10  153.50   12.90
   1   5  10  162.22   13.47
   1  -5  10  154.49    9.97
   1  -5  10  150.00    8.67
  -1   5 -10  153.32   13.07
  -1  -5 -10  143.51   11.46
  -1   5 -10  160.24   10.33
  -1   5 -10  153.17   11.55
  -1  -5 -10  151.13   10.13
   1   5  11   31.64    3.62
   1  -5  11   21.29    1.98
   1  -5  11   18.22    2.44
   1   5  11   19.37    3.47
   1   5  11   12.39    2.35
   1   5  11   17.00    2.46
   1   5  11   15.64    2.63
   1   5  11   17.74    3.34
   1   5  11   15.73    2.89
   1  -5  11   20.05    2.41
   1  -5  11   20.80    2.04
  -1  -5 -11   23.04    2.52
  -1   5 -11   19.59    2.15
  -1   5 -11   17.57    2.89
  -1   5 -11   21.92    3.30
  -1   5 -11   12.87    2.18
   1   5  12   -0.12    0.87
   1  -5  12   -0.02    0.53
   1   5  12    0.10    0.95
   1   5  12    0.04    0.60
   1   5  12   -0.18    0.88
   1  -5  12    0.39    0.62
   1  -5  12    0.53    0.62
   1  -5  12   -0.26    0.64
   1   5  12    0.78    0.89
   1   5  12    3.19    0.90
   1   5  12   -0.03    0.78
  -1   5 -12    2.28    0.72
  -1   5 -12    0.00    0.60
  -1  -5 -12   -0.14    0.65
  -1   5 -12    0.62    0.66
   1  -5  13  137.25    8.89
   1   5  13  116.32   13.63
   1   5  13  117.58    9.78
   1   5  13  115.59   11.20
   1   5  13  117.36   11.08
   1  -5  13  127.11   10.30
   1  -5  13  137.52   10.98
   1   5  13  125.44   12.39
   1   5  13  117.00   12.59
   1   5  13  102.36   10.88
   1  -5  13  136.17   10.85
  -1   5 -13  120.85   10.54
  -1   5 -13  123.91   10.63
  -1  -5 -13  120.49    8.51
  -1   5 -13  134.65   12.42
   1   5  14    2.88    1.23
   1   5  14   -0.01    1.23
   1  -5  14    0.55    0.91
   1  -5  14    0.44    0.81
   1   5  14    0.05    1.24
   1   5  14   -0.01    1.04
   1   5  14    0.91    0.81
   1  -5  14    0.29    0.66
   1   5  14   -0.15    0.91
   1   5  14    4.17    1.18
   1  -5  14    0.52    0.78
  -1   5 -14    2.66    1.04
  -1  -5 -14    0.53    0.75
  -1   5 -14    0.70    0.91
  -1   5 -14   -0.03    0.90
   1  -5  15   25.94    3.06
   1   5  15   25.04    4.76
   1   5  15   19.12    4.91
   1  -5  15   24.53    3.28
   1  -5  15   24.76    3.46
   1  -5  15   26.92    3.02
   1   5  15   19.37    3.18
   1   5  15   18.61    3.96
   1   5  15   20.25    4.35
   1   5  15   17.40    4.96
  -1   5 -15   25.52    3.69
  -1  -5 -15   31.55    4.06
  -1   5 -15   26.34    4.50
  -1   5 -15   18.52    3.01
   1   5  16    0.66    1.62
   1  -5  16    2.40    0.98
   1  -5  16    1.90    0.94
   1   5  16    1.23    1.93
   1   5  16    0.23    1.97
   1   5  16    4.86    1.89
   1   5  16    0.53    1.86
   1  -5  16    3.48    1.29
  -1   5 -16    3.57    1.57
  -1   5 -16    4.07    1.22
  -1   5 -16    3.43    1.44
  -1  -5 -16    3.75    1.47
   1  -5  17    7.62    1.90
   1   5  17    9.57    2.61
   1   5  17    4.29    3.06
   1  -5  17    7.00    1.92
   1   5  17    7.32    2.70
   1  -5  17    6.54    1.36
   1   5  17    3.36    2.36
   1   5  17    3.71    2.98
  -1  -5 -17    6.52    1.63
  -1   5 -17    5.30    2.26
  -1   5 -17    5.01    1.73
  -1   5 -17    6.53    1.70
   1  -5  18  102.28   10.01
   1   5  18   97.98   12.22
   1   5  18   84.70   13.04
   1   5  18   78.42   10.53
   1   5  18   87.85   11.16
   1  -5  18  101.82    9.62
  -1   5 -18   84.38    8.48
  -1  -5 -18   99.02    9.62
  -1   5 -18   95.62   10.91
  -1   5 -18  102.46   10.81
   1   5  19   61.99   10.92
   1  -5  19   77.55    8.34
   1  -5  19   69.37    7.44
   1   5  19   54.70   10.32
   1   5  19   64.64    9.72
   1   5  19   57.72    8.05
  -1   5 -19   61.88    6.50
  -1   5 -19   69.79    8.57
  -1   5 -19   67.47    7.90
  -1  -5 -19   66.33    8.74
  -1  -5 -19   66.67    7.89
   1  -5  20    4.66    2.12
   1   5  20    4.35    2.53
   1  -5  20    5.74    1.81
   1   5  20    2.58    3.08
  -1  -5 -20    4.42    2.17
  -1   5 -20    5.78    1.77
  -1   5 -20    2.56    1.47
   1  -5  21   84.03    9.49
   1  -5  21   77.72    8.07
   1   5  21   70.74   11.41
   1   5  21   71.12   10.37
  -1   5 -21   67.03    7.76
  -1   5 -21   70.63    8.04
  -1   5 -21   70.66    7.91
  -1  -5 -21   71.76    9.57
   1  -5  22    6.47    2.01
   1  -5  22    6.32    2.52
   1   5  22    3.53    2.55
   1   5  22    4.31    2.97
  -1  -5 -22    5.96    2.54
  -1   5 -22    5.10    1.90
  -1   5 -22    7.49    1.95
   1  -5  23   13.41    2.86
   1  -5  23    9.87    2.54
   1   5  23    7.31    3.29
   1   5  23    5.08    2.91
  -1   5 -23    8.99    2.17
  -1   5 -23    8.74    2.14
  -1  -5 -23    8.31    2.83
   1  -5  24    1.02    1.39
   1  -5  24    2.36    1.16
   1   5  24    0.92    1.88
  -1   5 -24    2.56    1.11
  -1  -5 -24    2.64    1.43
  -1   5 -24    0.24    1.15
   1  -5  25   13.71    2.53
   1  -5  25   13.48    3.11
   1   5  25   10.05    3.81
  -1   5 -25   10.81    2.32
  -1  -5 -25   14.26    2.94
   1  -5  26    6.02    1.74
   1  -5  26    4.05    1.72
   1   5  26    1.05    1.95
  -1   5 -26    3.88    1.40
  -1  -5 -26    3.20    1.56
   1  -6 -26   15.70    2.90
   1  -6 -25   23.06    3.67
   1   6 -25    5.43    2.64
   1   6 -25   20.79    2.65
  -1   6  25   11.66    3.52
  -1  -6  25   17.47    2.77
  -1  -6  25   22.77    2.98
   1   6 -24   11.96    2.20
   1   6 -24    9.81    2.21
   1  -6 -24   11.61    2.95
  -1   6  24    6.28    2.93
  -1  -6  24   10.37    2.15
  -1   6  24   -0.41    3.10
  -1  -6  24   12.76    2.35
   1   6 -23   52.08    6.00
   1   6 -23   45.66    5.42
   1  -6 -23   49.10    7.34
   1   6 -23   47.23    5.59
  -1  -6  23   50.03    5.56
  -1   6  23   38.11    7.03
  -1  -6  23   46.88    5.35
   1  -6 -22    7.27    2.99
   1   6 -22    7.83    2.24
   1   6 -22    7.76    2.12
   1   6 -22    5.86    2.01
  -1   6  22    5.82    2.59
  -1  -6  22    7.65    2.00
  -1   6  22    3.68    2.83
  -1  -6  22    5.89    1.89
   1   6 -21   31.34    4.57
   1   6 -21   33.94    4.95
   1   6 -21   38.48    5.50
   1  -6 -21   34.28    6.62
  -1   6  21   28.42    4.73
  -1  -6  21   36.11    4.52
  -1  -6  21   35.66    4.56
  -1   6  21   27.51    6.12
   1   6 -20  141.24   13.41
   1   6 -20  141.21   14.16
   1  -6 -20  151.19   18.16
   1   6 -20  135.35   12.33
  -1   6  20  135.46   17.64
  -1   6  20  141.33   16.81
  -1  -6  20  150.31   12.68
  -1  -6  20  150.84   13.98
   1  -6 -19    1.74    2.25
   1  -6 -19    2.32    1.13
   1   6 -19    2.25    1.59
   1   6 -19    2.48    1.49
   1   6 -19    1.61    0.92
  -1   6  19    1.77    1.92
  -1   6  19    2.21    1.66
  -1   6  19    0.39    1.88
  -1  -6  19    4.40    1.39
  -1  -6  19    2.73    1.09
   1   6 -18   24.70    3.30
   1   6 -18   21.31    3.66
   1   6 -18   20.83    3.82
   1  -6 -18   26.12    5.84
   1   6 -18   21.23    4.36
  -1   6  18   16.12    5.59
  -1   6  18   22.24    4.38
  -1   6  18   21.00    3.78
  -1  -6  18   26.08    3.85
  -1  -6  18   23.94    3.25
  -1   6  18   14.79    4.74
  -1  -6  18   22.53    4.04
   1  -6 -17    7.54    2.99
   1   6 -17    6.14    2.16
   1   6 -17    5.23    1.78
   1   6 -17    3.03    2.20
   1  -6 -17    5.58    1.79
   1   6 -17    5.84    1.90
   1   6 -17    5.41    2.10
  -1   6  17    6.12    2.35
  -1   6  17    4.48    2.69
  -1   6  17    2.98    2.52
  -1  -6  17    7.02    2.12
  -1  -6  17    5.75    1.57
  -1  -6  17    5.33    1.32
  -1   6  17    5.13    2.64
   1  -6 -16    0.23    1.43
   1  -6 -16   -0.10    0.94
   1   6 -16    3.13    1.07
   1   6 -16    2.73    0.98
   1   6 -16    0.48    0.70
   1   6 -16    0.04    0.99
   1   6 -16    0.02    0.88
   1   6 -16    0.08    0.90
  -1   6  16    0.00    1.16
  -1  -6  16    2.18    0.93
  -1   6  16   -0.24    1.30
  -1   6  16    0.13    1.30
  -1  -6  16    0.09    0.89
  -1   6  16    0.46    1.14
  -1  -6  16   -0.07    0.72
   1  -6 -15   10.02    3.37
   1  -6 -15   13.49    2.34
   1   6 -15   10.89    1.98
   1   6 -15   11.35    2.26
   1   6 -15    4.53    2.34
   1   6 -15    8.03    2.26
   1   6 -15    8.80    2.29
   1   6 -15    8.36    2.57
  -1   6  15    6.51    2.90
  -1  -6  15    7.97    1.67
  -1   6  15    9.51    2.80
  -1  -6  15   10.67    1.85
  -1  -6  15    9.04    1.62
  -1   6  15    3.76    2.80
  -1   6  15    6.46    2.92
   1  -6 -14  325.96   30.89
   1  -6 -14  343.21   25.94
   1   6 -14  305.46   23.34
   1   6 -14  321.13   26.74
   1   6 -14  312.38   25.55
   1   6 -14  340.89   28.84
   1   6 -14  307.97   23.76
   1   6 -14  329.26   26.15
  -1   6  14  322.45   30.99
  -1  -6  14  347.71   25.54
  -1   6  14  292.35   28.84
  -1   6  14  310.32   30.95
  -1  -6  14  324.74   22.72
  -1   6  14  326.27   28.03
  -1  -6  14  335.35   24.97
   1  -6 -13   39.71    6.66
   1   6 -13   38.80    4.87
   1   6 -13   46.30    4.74
   1   6 -13   54.36    6.15
   1   6 -13   47.05    4.93
   1   6 -13   47.80    5.29
   1  -6 -13   52.59    5.64
   1   6 -13   44.13    5.80
  -1   6  13   47.01    6.75
  -1   6  13   50.85    7.19
  -1  -6  13   46.28    4.65
  -1  -6  13   53.42    5.55
  -1  -6  13   51.48    4.95
  -1   6  13   43.86    6.26
  -1   6  13   42.38    6.54
  -1  -6  13   50.00    4.92
   1  -6 -12   76.27    7.35
   1   6 -12   67.07    5.40
   1   6 -12   75.13    6.86
   1  -6 -12   54.68    8.11
   1   6 -12   69.14    6.29
   1   6 -12   80.88    7.87
   1   6 -12   67.15    6.13
   1   6 -12   76.97    7.77
   1   6 -12   66.06    6.79
  -1   6  12   70.67    8.70
  -1   6  12   65.94    6.52
  -1   6  12   58.86    7.95
  -1  -6  12   71.79    6.45
  -1  -6  12   82.25    6.59
  -1   6  12   66.78    8.49
  -1  -6  12   74.81    6.06
   1   6 -11  189.29   16.24
   1   6 -11  173.52   15.38
   1   6 -11  182.94   14.74
   1   6 -11  165.39   12.27
   1  -6 -11  176.45   16.58
   1  -6 -11  189.59   14.87
   1   6 -11  187.80   16.23
   1   6 -11  166.87   12.06
   1   6 -11  192.54   16.17
  -1   6  11  162.55   13.91
  -1  -6  11  197.27   13.49
  -1   6  11  174.33   16.31
  -1   6  11  180.89   16.93
  -1   6  11  153.59   16.17
  -1  -6  11  176.24   12.12
  -1  -6  11  198.81   12.92
   1  -6 -10   25.79    3.24
   1   6 -10   21.36    2.97
   1  -6 -10   21.25    3.47
   1   6 -10   23.03    3.40
   1   6 -10   15.20    2.57
   1   6 -10   21.44    2.52
   1   6 -10   24.09    3.49
   1   6 -10   15.38    3.08
   1   6 -10   21.74    3.39
  -1   6  10   25.04    3.75
  -1   6  10   21.30    3.09
  -1  -6  10   20.49    2.51
  -1  -6  10   24.70    2.72
  -1   6  10   16.15    3.34
  -1   6  10   23.57    3.71
  -1  -6  10   22.28    2.22
   1   6  -9    3.31    1.54
   1  -6  -9    5.28    1.76
   1  -6  -9    8.57    1.83
   1   6  -9    5.57    1.72
   1   6  -9    3.84    1.67
   1   6  -9    6.33    1.26
   1   6  -9    5.79    1.81
   1   6  -9    8.62    1.48
  -1   6   9    7.18    1.44
  -1   6   9    2.40    1.68
  -1   6   9    4.69    1.84
  -1  -6   9    5.35    1.32
  -1  -6   9    5.24    1.04
  -1  -6   9    6.78    1.03
  -1   6   9    6.94    1.87
   1  -6  -8    3.97    1.47
   1   6  -8    6.94    1.59
   1   6  -8    3.95    1.29
   1   6  -8    3.22    1.41
   1   6  -8    5.61    0.90
   1  -6  -8    3.73    1.42
   1   6  -8    1.73    1.23
   1   6  -8    3.97    1.36
  -1  -6   8    3.75    0.85
  -1  -6   8    3.98    0.84
  -1   6   8    3.83    1.08
  -1   6   8    3.39    1.56
  -1   6   8    1.00    1.38
  -1   6   8    7.31    1.21
  -1  -6   8    5.21    1.08
   1   6  -7  100.46    8.49
   1  -6  -7  115.68    9.51
   1   6  -7  108.52    6.31
   1   6  -7  113.69    9.29
   1   6  -7  101.42    8.90
   1   6  -7  107.12    8.17
   1  -6  -7  118.99    8.86
   1   6  -7  118.53    9.88
  -1   6   7  104.99    7.10
  -1   6   7  110.74    9.67
  -1   6   7  107.75    8.73
  -1  -6   7  103.23    7.04
  -1  -6   7  115.16    7.02
  -1  -6   7  106.49    6.97
   1  -6  -6   38.19    4.00
   1  -6  -6   38.92    3.88
   1   6  -6   37.93    3.81
   1   6  -6   36.25    3.47
   1   6  -6   31.38    3.50
   1   6  -6   34.15    3.58
   1   6  -6   37.38    4.01
   1   6  -6   36.33    2.53
  -1  -6   6   38.60    2.73
  -1   6   6   36.91    4.29
  -1  -6   6   35.23    2.52
  -1   6   6   33.94    2.86
  -1  -6   6   35.52    3.01
  -1   6   6   38.95    4.22
   1   6  -5   72.04    6.39
   1   6  -5   74.75    6.25
   1  -6  -5   72.10    6.15
   1  -6  -5   78.73    5.75
   1   6  -5   67.22    5.12
   1   6  -5   64.07    5.62
   1   6  -5   76.13    6.28
   1   6  -5   75.93    5.68
  -1   6   5   73.18    6.60
  -1   6   5   72.35    5.25
  -1  -6   5   71.16    3.25
  -1  -6   5   71.87    4.38
  -1   6   5   76.91    6.67
   1   6  -4  575.79   38.08
   1  -6  -4  552.82   35.84
   1   6  -4  562.23   34.91
   1   6  -4  573.30   35.97
   1   6  -4  529.61   32.90
   1   6  -4  511.05   30.17
   1  -6  -4  577.45   31.94
  -1  -6   4  522.15   26.27
  -1  -6   4  558.83   22.92
  -1   6   4  584.14   38.15
  -1   6   4  544.56   28.67
  -1   6   4  568.44   37.65
   1  -6  -3  161.56   11.38
   1   6  -3  161.39   11.35
   1   6  -3  146.07    9.86
   1   6  -3  160.45   10.27
   1   6  -3  168.95   12.31
   1   6  -3  163.60   11.25
   1  -6  -3  161.11    9.38
  -1   6   3  164.75   11.62
  -1   6   3  156.24   11.47
  -1   6   3  159.19    8.82
  -1  -6   3  165.77    7.64
   1   6  -2  742.11   44.51
   1   6  -2  722.76   43.00
   1   6  -2  772.99   49.11
   1  -6  -2  725.99   43.74
   1   6  -2  703.42   39.96
   1   6  -2  751.06   45.01
   1  -6  -2  747.88   37.90
  -1   6   2  728.87   45.36
  -1  -6   2  695.25   29.57
  -1   6   2  645.15   30.44
  -1   6   2  753.30   46.69
   1   6  -1   27.64    2.62
   1  -6  -1   26.59    2.45
   1  -6  -1   23.29    1.82
   1   6  -1   24.91    2.59
   1   6  -1   22.51    2.53
   1   6  -1   27.18    2.79
   1  -6  -1   26.76    2.77
  -1   6   1   24.74    2.34
  -1  -6   1   25.46    1.83
  -1   6   1   26.13    1.97
  -1   6   1   27.92    3.03
   1  -6   0  451.42   23.20
   1  -6   0  484.94   29.32
   1   6   0  468.61   27.73
   1   6   0  458.06   26.57
   1   6   0  500.95   32.54
   1   6   0  509.65   31.39
  -1   6   0  497.36   30.34
  -1   6   0  456.53   20.71
  -1  -6   0  499.36   22.88
  -1   6   0  502.74   31.38
   1  -6   1  252.51   15.66
   1  -6   1  249.98   12.95
   1   6   1  250.30   15.26
   1   6   1  259.51   16.99
   1   6   1  252.04   16.62
   1   6   1  228.48   14.56
  -1   6  -1  228.33   10.61
  -1   6  -1  263.01   16.83
  -1  -6  -1  324.93   16.00
  -1   6  -1  258.69   16.89
   1   6   2  127.06    8.43
   1   6   2  121.33    9.11
   1   6   2  130.08    9.57
   1   6   2  132.80    9.37
   1  -6   2  125.68    7.03
   1  -6   2  127.41    8.46
  -1   6  -2  126.33    9.01
  -1   6  -2  132.43    9.69
  -1   6  -2  111.92    5.71
  -1  -6  -2  157.56    8.78
   1  -6   3   51.41    3.42
   1   6   3   50.74    3.42
   1  -6   3   51.20    4.00
   1  -6   3   46.68    2.33
   1   6   3   44.86    4.41
   1   6   3   41.53    3.81
   1   6   3   45.11    4.22
   1   6   3   50.80    4.46
  -1   6  -3   45.74    3.61
  -1   6  -3   45.59    3.00
  -1  -6  -3   66.71    4.50
  -1   6  -3   47.69    4.28
  -1   6  -3   41.32    5.09
   1  -6   4  176.25    7.46
   1   6   4  166.09   12.11
   1  -6   4  169.89   10.51
   1  -6   4  184.86    9.98
   1   6   4  175.58   13.40
   1   6   4  169.58   12.06
   1   6   4  194.49   11.63
   1   6   4  160.93   12.15
  -1   6  -4  160.44   11.46
  -1   6  -4  160.67   13.79
  -1   6  -4  169.09    9.10
  -1   6  -4  158.05   11.48
  -1  -6  -4  170.29    9.47
   1   6   5   35.08    4.26
   1   6   5   34.44    3.86
   1  -6   5   35.08    3.12
   1  -6   5   39.96    2.75
   1   6   5   37.08    3.01
   1   6   5   36.54    4.00
   1   6   5   34.11    3.25
   1   6   5   35.27    3.86
   1  -6   5   39.23    3.41
   1  -6   5   42.64    2.31
  -1   6  -5   32.58    3.48
  -1  -6  -5   33.46    3.49
  -1   6  -5   32.63    3.50
  -1   6  -5   37.53    2.98
  -1   6  -5   33.02    4.40
  -1  -6  -5   36.31    3.21
   1  -6   6  416.93   24.84
   1  -6   6  423.88   18.23
   1  -6   6  398.77   23.68
   1  -6   6  428.16   21.28
   1   6   6  392.20   26.24
   1   6   6  392.78   27.24
   1   6   6  429.04   31.16
   1   6   6  431.62   29.30
   1   6   6  411.81   29.04
   1   6   6  423.92   26.98
  -1   6  -6  400.80   27.45
  -1   6  -6  396.53   26.34
  -1   6  -6  418.66   22.28
  -1   6  -6  404.81   30.62
  -1  -6  -6  398.81   26.94
  -1  -6  -6  395.57   23.47
  -1   6  -6  401.33   24.73
   1   6   7   98.41    8.40
   1  -6   7  110.00    5.59
   1   6   7   89.66    8.06
   1  -6   7  101.89    5.50
   1  -6   7   99.03    6.73
   1  -6   7   99.19    6.99
   1   6   7   94.31    9.14
   1   6   7   94.89    8.40
   1   6   7   99.81    7.95
   1  -6   7   93.58    6.35
   1   6   7   90.64    7.55
  -1   6  -7   87.86    7.30
  -1  -6  -7   94.29    6.87
  -1  -6  -7   96.28    8.07
  -1   6  -7   92.45    7.90
  -1   6  -7  100.41    6.57
  -1   6  -7   94.43    7.09
   1   6   8   22.20    3.21
   1  -6   8   25.69    1.98
   1  -6   8   22.43    1.72
   1  -6   8   22.32    2.26
   1  -6   8   21.26    2.59
   1  -6   8   22.70    2.39
   1   6   8   22.00    2.87
   1   6   8   19.21    2.76
   1   6   8   20.83    3.40
   1   6   8   18.64    2.99
   1   6   8   20.45    3.20
  -1  -6  -8   19.91    2.51
  -1  -6  -8   18.76    2.72
  -1   6  -8   20.59    2.76
  -1   6  -8   18.30    2.71
  -1   6  -8   20.61    3.41
  -1   6  -8   21.76    1.97
   1   6   9   -0.02    0.65
   1   6   9    2.14    0.86
   1   6   9    0.24    1.07
   1   6   9    0.14    0.71
   1  -6   9    2.48    0.69
   1  -6   9    0.04    0.49
   1   6   9    2.25    0.85
   1   6   9    0.37    0.79
   1   6   9   -0.02    0.89
   1  -6   9    0.21    0.42
   1  -6   9    0.48    0.59
  -1  -6  -9    2.40    0.79
  -1   6  -9    0.32    0.95
  -1   6  -9    0.10    0.80
  -1   6  -9    0.51    0.67
  -1  -6  -9    0.54    0.76
   1   6  10  526.45   43.59
   1  -6  10  519.78   32.17
   1  -6  10  495.49   31.40
   1  -6  10  542.22   28.96
   1   6  10  535.64   41.76
   1   6  10  540.70   40.73
   1   6  10  493.55   35.37
   1   6  10  472.30   38.41
   1   6  10  454.86   37.67
   1   6  10  495.99   37.48
   1  -6  10  485.36   30.97
  -1   6 -10  502.96   36.78
  -1   6 -10  498.89   31.60
  -1  -6 -10  469.66   36.20
  -1  -6 -10  485.97   32.38
  -1   6 -10  494.23   40.20
   1   6  11   53.36    7.92
   1   6  11   58.38    6.04
   1  -6  11   57.83    5.32
   1   6  11   53.17    6.70
   1   6  11   56.47    7.16
   1  -6  11   60.59    4.50
   1  -6  11   61.17    5.58
   1   6  11   60.57    6.94
   1   6  11   52.54    7.25
   1   6  11   55.25    6.19
   1  -6  11   58.72    5.55
  -1   6 -11   57.66    6.29
  -1   6 -11   59.32    7.34
  -1  -6 -11   54.29    5.83
  -1  -6 -11   53.27    6.41
  -1   6 -11   59.62    5.51
   1   6  12  224.31   21.23
   1   6  12  236.60   24.85
   1  -6  12  251.23   17.99
   1  -6  12  239.64   17.85
   1   6  12  253.97   21.63
   1   6  12  230.01   18.69
   1   6  12  209.29   19.83
   1   6  12  243.54   22.46
   1   6  12  226.93   20.12
   1  -6  12  247.04   18.07
   1  -6  12  261.14   16.35
  -1   6 -12  224.74   21.13
  -1  -6 -12  289.24   22.22
  -1  -6 -12  232.87   20.85
  -1   6 -12  241.58   17.16
  -1   6 -12  254.64   21.15
   1   6  13   16.97    4.01
   1   6  13   13.98    3.48
   1   6  13   16.36    3.83
   1   6  13   14.16    3.21
   1  -6  13   19.01    2.42
   1   6  13   12.44    4.33
   1  -6  13   20.30    2.99
   1  -6  13   17.12    2.81
   1  -6  13   19.43    2.95
  -1  -6 -13   17.40    3.38
  -1   6 -13   13.39    2.76
  -1  -6 -13   20.82    3.71
  -1   6 -13   16.75    3.66
  -1   6 -13   17.36    2.98
   1   6  14   17.16    3.44
   1   6  14   16.68    3.99
   1  -6  14   19.51    3.21
   1   6  14   17.81    3.89
   1   6  14   15.73    4.25
   1   6  14   11.87    4.46
   1  -6  14   20.52    3.27
   1  -6  14   23.74    3.23
  -1  -6 -14   24.08    4.00
  -1   6 -14   21.33    3.94
  -1   6 -14   17.69    3.08
  -1  -6 -14   15.49    3.67
  -1   6 -14   16.86    3.36
   1  -6  15   15.18    3.18
   1  -6  15   18.50    2.33
   1   6  15    9.77    2.91
   1   6  15   15.20    3.72
   1   6  15   10.76    3.90
   1   6  15   15.56    3.25
   1   6  15   11.06    4.36
   1  -6  15   15.54    2.86
  -1   6 -15   16.56    2.39
  -1  -6 -15   17.08    3.11
  -1  -6 -15   15.92    3.64
  -1   6 -15   14.54    2.99
  -1   6 -15   17.54    3.54
   1  -6  16   79.33    8.04
   1  -6  16   82.83    8.60
   1   6  16   63.65   10.82
   1   6  16   64.47   11.63
   1   6  16   69.40    9.57
  -1  -6 -16   85.91    8.32
  -1   6 -16   72.48    7.69
  -1   6 -16   81.05    8.76
  -1   6 -16   92.18    9.81
  -1  -6 -16   65.98    8.97
   1  -6  17    7.49    1.93
   1   6  17    8.12    2.95
   1   6  17    5.63    3.03
   1   6  17    3.46    3.17
   1  -6  17    6.59    2.20
  -1   6 -17    8.09    2.45
  -1   6 -17    6.63    2.48
  -1  -6 -17    6.41    2.56
  -1  -6 -17    6.08    2.06
  -1   6 -17    6.81    1.99
   1   6  18    9.46    4.22
   1   6  18   14.16    3.63
   1  -6  18   15.13    2.17
   1  -6  18   15.66    3.07
   1   6  18   12.32    4.33
  -1  -6 -18   12.80    3.72
  -1   6 -18   13.20    3.47
  -1   6 -18   13.68    2.75
  -1  -6 -18   13.36    3.03
  -1   6 -18   17.50    2.72
   1   6  19    5.42    2.50
   1  -6  19    3.54    2.02
   1   6  19    3.83    3.29
   1  -6  19    8.15    2.31
  -1   6 -19    6.97    1.78
  -1  -6 -19    4.85    2.59
  -1   6 -19    6.39    2.25
   1  -6  20    0.23    1.30
   1  -6  20    3.38    1.16
   1   6  20    0.33    1.51
   1   6  20    0.11    1.83
  -1  -6 -20    0.72    1.53
  -1   6 -20    0.31    1.24
  -1   6 -20    2.24    1.03
   1   6  21   61.45   10.99
   1   6  21   57.58    9.01
   1  -6  21   64.31    5.92
   1  -6  21   72.03    8.55
  -1   6 -21   60.66    7.49
  -1   6 -21   67.95    7.25
  -1   6 -21   63.41    6.86
  -1  -6 -21   69.51    8.98
   1  -6  22   18.40    3.02
   1   6  22   14.42    4.80
   1  -6  22   18.70    3.15
  -1   6 -22   15.59    3.11
  -1   6 -22   15.52    3.00
  -1  -6 -22   15.96    3.75
   1  -6  23   62.92    7.14
   1  -6  23   56.51    6.43
   1   6  23   53.27    8.78
  -1   6 -23   54.35    5.94
  -1   6 -23   53.63    5.79
  -1  -6 -23   57.97    7.34
   1  -6  24   15.17    2.90
   1  -6  24   10.13    2.28
   1   6  24    8.20    3.42
  -1   6 -24   11.93    2.37
  -1  -6 -24   13.22    2.88
  -1   6 -24   11.56    2.25
   1  -6  25    0.39    0.78
   1   6  25   -0.04    1.06
   1  -6  25    3.25    1.04
  -1   6 -25    0.50    0.72
  -1   6 -25    0.11    0.84
  -1  -6 -25   -0.13    0.91
   1   6  26   20.68    4.27
   1  -6  26   32.39    4.04
   1   7 -25    0.27    0.61
   1  -7 -25    2.06    0.86
  -1  -7  25   -0.11    0.69
   1   7 -24    5.85    1.25
   1   7 -24    0.71    1.14
   1  -7 -24    3.34    1.64
  -1   7  24    0.09    1.44
  -1  -7  24    4.22    1.27
   1  -7 -23    4.39    1.68
   1   7 -23    2.99    1.24
   1   7 -23    4.35    1.14
   1   7 -23    0.22    1.15
  -1   7  23   -0.11    1.64
  -1   7  23    0.29    1.60
  -1  -7  23    2.76    1.28
  -1  -7  23    2.62    1.23
   1   7 -22   18.21    2.56
   1  -7 -22   18.34    3.62
   1   7 -22    0.29    2.54
   1   7 -22   18.81    2.84
  -1   7  22    0.33    2.90
  -1  -7  22   15.25    2.92
  -1   7  22    9.65    3.33
  -1  -7  22   16.91    2.74
   1   7 -21    0.68    1.27
   1   7 -21    0.44    1.09
   1  -7 -21    1.68    1.83
   1   7 -21    3.21    1.34
  -1   7  21    1.40    1.56
  -1  -7  21    1.97    1.07
  -1   7  21    0.27    1.70
  -1  -7  21    3.26    1.17
   1  -7 -20   35.31    6.28
   1   7 -20   31.24    4.69
   1   7 -20   34.94    5.27
   1   7 -20   27.74    4.37
  -1  -7  20   31.12    3.99
  -1   7  20   26.22    5.99
  -1   7  20   34.74    6.06
  -1  -7  20   33.94    4.77
   1  -7 -19   -0.49    1.43
   1   7 -19   -0.19    1.11
   1   7 -19   -0.04    1.08
   1  -7 -19    0.73    0.81
   1   7 -19    0.22    1.01
  -1  -7  19   -0.06    0.68
  -1  -7  19    3.94    0.91
  -1   7  19    0.24    1.42
  -1   7  19    2.55    1.15
  -1   7  19   -0.01    1.43
   1   7 -18    1.24    1.33
   1  -7 -18    1.09    1.68
   1   7 -18    3.92    1.43
   1   7 -18    0.09    1.03
   1  -7 -18    2.25    1.03
  -1   7  18    0.23    1.60
  -1   7  18    0.57    1.39
  -1  -7  18    2.49    0.98
  -1  -7  18    0.86    1.25
  -1   7  18    0.40    1.69
   1   7 -17   48.78    5.91
   1   7 -17   44.22    5.30
   1  -7 -17   49.52    8.47
   1   7 -17   55.13    7.22
   1   7 -17   49.27    6.86
  -1   7  17   39.46    7.53
  -1  -7  17   49.38    5.26
  -1  -7  17   54.43    6.22
  -1   7  17   54.04    8.11
  -1   7  17   56.59    7.27
   1   7 -16   -0.04    1.00
   1   7 -16    3.66    0.96
   1   7 -16    0.49    1.08
   1   7 -16    0.25    0.84
   1  -7 -16   -0.32    1.29
   1   7 -16    0.32    0.97
   1  -7 -16    0.27    0.96
  -1  -7  16   -0.39    0.92
  -1   7  16    0.01    1.25
  -1  -7  16    1.32    0.98
  -1  -7  16    0.12    0.69
  -1   7  16    0.01    1.13
  -1   7  16    0.21    1.10
   1  -7 -15  278.37   27.03
   1   7 -15  279.01   25.42
   1   7 -15  271.40   24.04
   1   7 -15  260.75   21.15
   1   7 -15  275.59   23.87
   1  -7 -15  291.52   24.84
   1   7 -15  288.86   25.51
  -1  -7  15  285.19   20.70
  -1   7  15  229.59   26.70
  -1   7  15  272.55   24.86
  -1  -7  15  278.32   22.86
  -1  -7  15  282.33   21.90
  -1   7  15  254.46   26.81
  -1   7  15  262.09   28.28
   1  -7 -14   44.24    7.18
   1   7 -14   39.05    5.53
   1   7 -14   42.86    5.09
   1   7 -14   37.66    4.53
   1   7 -14   42.44    5.70
   1   7 -14   39.53    5.72
   1  -7 -14   47.30    4.84
  -1   7  14   29.94    6.35
  -1   7  14   44.21    6.51
  -1  -7  14   44.89    5.40
  -1  -7  14   41.93    4.51
  -1   7  14   39.74    5.67
  -1  -7  14   50.06    5.49
  -1   7  14   33.64    6.30
   1  -7 -13   79.10    9.60
   1   7 -13   71.85    8.56
   1   7 -13   61.11    7.07
   1  -7 -13   70.08    6.83
   1   7 -13   71.50    8.05
   1   7 -13   61.55    6.78
   1   7 -13   75.92    8.67
  -1  -7  13   70.27    6.46
  -1  -7  13   70.99    6.12
  -1   7  13   64.02    9.29
  -1   7  13   64.03    8.83
  -1   7  13   60.19    8.53
  -1  -7  13   75.99    7.58
  -1   7  13   73.73    9.56
  -1  -7  13   75.33    7.07
   1   7 -12   10.26    2.79
   1  -7 -12   14.65    2.81
   1   7 -12   12.66    2.85
   1   7 -12    7.77    1.98
   1  -7 -12   14.77    3.09
   1   7 -12    8.80    2.76
  -1   7  12   11.59    3.33
  -1   7  12    5.00    2.78
  -1   7  12   11.20    3.34
  -1  -7  12   12.42    2.08
  -1   7  12    8.12    2.55
  -1  -7  12   12.10    2.02
  -1  -7  12   12.03    2.26
   1   7 -11    0.05    0.71
   1   7 -11    0.01    0.76
   1   7 -11   -0.14    0.74
   1   7 -11    0.10    0.47
   1  -7 -11    0.60    0.77
   1  -7 -11    0.10    0.80
   1   7 -11    0.09    0.70
  -1   7  11    0.04    0.80
  -1   7  11    0.11    0.68
  -1   7  11    0.10    0.84
  -1   7  11    0.69    0.62
  -1  -7  11   -0.01    0.52
  -1  -7  11    0.13    0.55
  -1  -7  11    0.27    0.53
   1  -7 -10    0.07    0.73
   1  -7 -10    0.07    0.98
   1   7 -10    1.38    0.99
   1   7 -10    0.25    0.70
   1   7 -10    0.99    1.02
   1   7 -10    0.59    0.85
   1   7 -10    0.00    0.84
  -1   7  10    0.00    0.95
  -1   7  10    3.16    1.08
  -1   7  10    4.48    1.14
  -1  -7  10    0.24    0.71
  -1   7  10    0.27    0.83
  -1  -7  10    0.30    0.61
   1   7  -9   25.08    3.64
   1  -7  -9   20.40    3.43
   1  -7  -9   26.05    3.81
   1   7  -9   23.51    3.88
   1   7  -9   18.35    3.06
   1   7  -9   20.29    3.61
   1   7  -9   21.25    3.19
  -1  -7   9   20.87    2.25
  -1   7   9   15.63    3.42
  -1   7   9   19.91    4.14
  -1  -7   9   24.27    2.87
  -1  -7   9   23.41    2.51
  -1   7   9   19.84    3.09
  -1   7   9   20.36    3.84
   1  -7  -8   16.29    2.78
   1   7  -8   15.10    2.12
   1   7  -8   12.75    2.24
   1   7  -8   10.78    2.19
   1   7  -8   14.91    2.43
   1  -7  -8   14.69    2.84
   1   7  -8   13.09    2.76
  -1  -7   8   12.43    1.66
  -1   7   8   14.02    3.03
  -1  -7   8   14.42    2.09
  -1  -7   8   13.41    1.61
  -1   7   8   14.05    2.26
  -1   7   8   13.88    3.04
   1   7  -7    7.77    2.05
   1  -7  -7   12.49    2.15
   1  -7  -7    6.86    1.98
   1   7  -7    7.75    1.77
   1   7  -7    4.07    1.92
   1   7  -7    8.95    2.04
   1   7  -7    9.72    2.28
  -1  -7   7    8.96    1.32
  -1  -7   7    7.54    1.35
  -1   7   7    8.00    2.00
  -1  -7   7    8.03    1.14
  -1   7   7    8.99    1.71
  -1   7   7    8.81    2.21
   1  -7  -6    8.40    1.35
   1  -7  -6    6.66    1.24
   1   7  -6    7.23    1.78
   1   7  -6    6.52    1.98
   1   7  -6    8.73    1.88
   1   7  -6    6.29    1.26
   1   7  -6    8.81    1.60
  -1   7   6    8.57    2.00
  -1  -7   6    6.89    1.25
  -1   7   6    6.86    1.42
  -1   7   6    8.07    2.09
  -1  -7   6    6.15    1.38
  -1  -7   6    7.76    1.18
   1   7  -5   22.13    2.89
   1   7  -5   22.60    2.52
   1  -7  -5   25.10    3.24
   1  -7  -5   24.98    2.89
   1   7  -5   22.95    2.89
   1   7  -5   24.93    3.19
   1   7  -5   19.49    3.01
   1   7  -5   24.94    3.38
  -1   7   5   25.44    2.81
  -1   7   5   26.03    2.61
  -1  -7   5   19.83    2.03
  -1  -7   5   24.77    2.13
  -1   7   5   21.74    3.37
   1  -7  -4   87.71    7.46
   1   7  -4   90.55    7.40
   1   7  -4   92.65    8.09
   1   7  -4   86.93    7.00
   1   7  -4   89.81    7.52
   1   7  -4   95.77    8.06
   1   7  -4   84.91    6.85
   1  -7  -4   89.61    6.85
  -1  -7   4   79.78    5.58
  -1   7   4   96.73    8.42
  -1  -7   4   93.31    4.95
  -1  -7   4   79.70    5.75
  -1   7   4   95.04    8.26
  -1   7   4   95.67    6.56
   1   7  -3    2.58    0.95
   1  -7  -3    1.61    0.66
   1   7  -3    2.58    0.81
   1   7  -3    2.06    0.86
   1   7  -3    0.21    0.82
   1  -7  -3    1.80    0.85
   1   7  -3    2.69    1.07
  -1  -7   3    1.18    0.54
  -1  -7   3    1.53    0.52
  -1   7   3    1.97    0.57
  -1  -7   3    1.52    0.68
  -1   7   3    1.43    0.71
  -1   7   3    2.53    1.04
   1   7  -2  261.67   19.64
   1  -7  -2  255.44   15.70
   1   7  -2  269.54   18.22
   1   7  -2  247.54   17.57
   1   7  -2  241.50   16.39
   1  -7  -2  247.45   15.25
   1  -7  -2  251.41   17.79
   1   7  -2  247.28   16.94
  -1   7   2  236.11   13.27
  -1  -7   2  258.94   13.23
  -1  -7   2  224.12   14.62
  -1   7   2  249.63   18.07
  -1   7   2  258.35   19.10
   1  -7  -1    1.21    0.55
   1   7  -1    0.47    0.69
   1  -7  -1    3.08    0.72
   1   7  -1    0.29    0.60
   1   7  -1    0.14    0.74
   1   7  -1    0.01    0.49
   1   7  -1    0.02    0.68
   1  -7  -1    0.37    0.62
  -1   7   1    1.52    0.44
  -1   7   1    2.15    0.78
  -1   7   1    0.33    0.80
  -1   7   1    0.47    1.07
  -1  -7   1    0.02    0.54
  -1  -7   1    1.07    0.44
   1  -7   0   18.21    1.92
   1   7   0   17.31    1.95
   1  -7   0   19.01    2.04
   1   7   0   14.05    2.39
   1  -7   0   17.61    1.84
   1   7   0   17.17    2.38
   1   7   0   16.86    2.29
   1   7   0   18.23    2.76
  -1   7   0   16.80    2.65
  -1   7   0   20.37    3.38
  -1  -7   0   17.53    1.68
  -1  -7   0   14.37    1.89
  -1   7   0   19.01    2.77
  -1   7   0   15.82    1.41
   1   7   1    2.54    1.27
   1  -7   1    5.48    0.89
   1  -7   1    4.13    0.94
   1  -7   1    4.40    0.98
   1   7   1    3.62    1.24
   1   7   1    4.48    1.25
   1   7   1    4.14    0.88
   1   7   1    5.44    1.47
  -1   7  -1    4.84    1.65
  -1   7  -1    6.84    1.47
  -1  -7  -1    4.83    0.89
  -1   7  -1    4.18    0.85
  -1  -7  -1    3.16    1.05
  -1   7  -1    4.23    1.42
   1   7   2   15.22    2.62
   1   7   2   12.92    2.21
   1   7   2   15.79    2.25
   1  -7   2   15.06    1.76
   1   7   2   13.96    2.22
   1  -7   2   16.69    1.83
   1   7   2   15.85    2.25
   1  -7   2   17.68    2.17
  -1  -7  -2   16.59    1.85
  -1   7  -2   13.65    1.28
  -1   7  -2   14.90    2.35
  -1   7  -2   17.27    2.76
  -1  -7  -2   14.98    2.01
  -1   7  -2   15.82    2.89
   1   7   3   56.70    4.97
   1  -7   3   55.09    4.08
   1  -7   3   54.69    4.72
   1  -7   3   56.32    3.28
   1   7   3   57.07    5.79
   1   7   3   53.35    5.47
   1   7   3   53.65    5.54
   1   7   3   57.66    5.25
   1  -7   3   56.57    4.10
  -1   7  -3   54.83    3.52
  -1   7  -3   58.55    5.35
  -1   7  -3   56.20    5.28
  -1   7  -3   53.79    6.02
  -1   7  -3   50.86    4.42
  -1  -7  -3   48.21    4.35
  -1  -7  -3   62.20    4.64
   1  -7   4   26.35    2.95
   1  -7   4   23.68    2.64
   1  -7   4   31.77    1.99
   1  -7   4   29.98    2.62
   1   7   4   26.44    3.60
   1   7   4   25.80    3.19
   1  -7   4   28.44    2.46
   1   7   4   24.01    3.52
   1   7   4   29.37    3.54
   1   7   4   28.17    3.31
  -1   7  -4   27.78    3.33
  -1   7  -4   24.68    2.86
  -1   7  -4   30.17    2.44
  -1   7  -4   26.67    2.73
  -1  -7  -4   25.73    2.90
  -1  -7  -4   28.09    2.97
  -1   7  -4   26.03    3.90
   1  -7   5   38.79    2.99
   1  -7   5   36.05    3.56
   1  -7   5   33.64    2.79
   1   7   5   32.82    4.31
   1   7   5   34.58    3.70
   1   7   5   32.73    3.45
   1   7   5   31.40    4.13
   1  -7   5   36.07    3.44
   1   7   5   37.04    4.19
  -1  -7  -5   30.79    3.60
  -1   7  -5   32.27    3.25
  -1   7  -5   37.44    4.19
  -1   7  -5   34.56    3.76
  -1   7  -5   32.30    2.90
  -1   7  -5   35.01    4.51
  -1  -7  -5   38.99    3.06
   1  -7   6   69.42    5.10
   1   7   6   67.41    7.25
   1  -7   6   72.13    4.74
   1   7   6   66.92    6.93
   1  -7   6   67.30    5.00
   1   7   6   62.50    5.85
   1   7   6   63.96    6.94
   1   7   6   70.38    6.78
  -1   7  -6   63.91    5.57
  -1   7  -6   71.89    6.46
  -1   7  -6   72.03    5.23
  -1   7  -6   68.24    6.37
  -1   7  -6   68.62    7.44
  -1  -7  -6   64.30    5.38
  -1  -7  -6   81.75    7.30
   1   7   7    9.76    2.24
   1  -7   7    9.09    1.42
   1  -7   7    8.24    1.81
   1   7   7    9.59    2.20
   1  -7   7    7.99    1.59
   1   7   7    4.97    2.32
   1  -7   7    9.89    1.22
   1   7   7    8.85    2.14
   1   7   7    8.24    1.97
  -1  -7  -7   10.52    1.79
  -1   7  -7    9.29    2.51
  -1   7  -7   11.29    1.65
  -1  -7  -7    8.05    1.84
  -1   7  -7    7.09    1.86
  -1   7  -7    9.93    2.12
   1  -7   8   38.59    3.60
   1   7   8   38.75    4.75
   1   7   8   37.50    5.48
   1   7   8   35.14    5.08
   1  -7   8   46.02    4.21
   1   7   8   40.59    5.17
   1   7   8   38.45    4.73
   1  -7   8   42.06    4.33
  -1   7  -8   42.53    3.96
  -1   7  -8   36.88    4.42
  -1   7  -8   37.46    3.87
  -1   7  -8   38.17    5.57
  -1  -7  -8   39.63    4.68
  -1  -7  -8   51.35    5.64
   1   7   9    4.37    2.03
   1  -7   9    7.04    1.44
   1  -7   9    5.40    1.41
   1  -7   9    6.82    1.63
   1   7   9    5.50    1.83
   1   7   9    4.14    2.17
   1   7   9    5.84    2.02
   1   7   9    4.71    1.91
  -1   7  -9    6.38    1.81
  -1   7  -9    5.57    1.41
  -1   7  -9    4.75    1.68
  -1  -7  -9    4.46    1.84
  -1  -7  -9    6.23    1.49
  -1   7  -9    6.41    2.13
   1  -7  10  150.95   10.52
   1   7  10  137.27   13.07
   1   7  10  147.27   14.13
   1   7  10  132.27   14.20
   1   7  10  141.34   13.89
   1  -7  10  142.77   11.29
   1   7  10  149.02   14.92
   1  -7  10  145.99   11.25
  -1   7 -10  149.17   13.22
  -1  -7 -10  179.06   15.45
  -1   7 -10  140.63   14.85
  -1   7 -10  150.73   11.34
  -1  -7 -10  145.98   13.74
   1   7  11   22.19    3.81
   1  -7  11   25.43    3.18
   1   7  11   20.08    3.60
   1  -7  11   20.89    3.17
   1   7  11   16.80    4.56
   1   7  11   19.70    4.27
   1   7  11   20.33    3.89
   1  -7  11   22.54    3.01
  -1   7 -11   19.73    3.11
  -1   7 -11   34.21    4.57
  -1  -7 -11   26.43    3.17
  -1   7 -11   22.90    3.69
  -1  -7 -11   21.08    3.79
   1   7  12   34.23    6.36
   1  -7  12   41.63    4.55
   1  -7  12   38.67    4.51
   1   7  12   35.32    5.20
   1   7  12   33.08    5.69
   1   7  12   39.73    5.37
   1  -7  12   44.73    4.78
   1   7  12   36.09    5.64
  -1   7 -12   36.81    6.23
  -1   7 -12   39.10    4.49
  -1   7 -12   40.17    5.33
  -1  -7 -12   37.79    5.40
  -1  -7 -12   37.92    5.26
   1  -7  13   65.35    6.91
   1  -7  13   72.15    7.22
   1   7  13   66.72    7.97
   1  -7  13   77.91    7.76
   1   7  13   67.10    8.46
   1   7  13   71.64    7.92
   1   7  13   67.19    8.39
   1   7  13   57.97    8.95
  -1  -7 -13   72.19    6.80
  -1   7 -13   76.68    9.23
  -1   7 -13   68.53    6.96
  -1   7 -13   75.42    7.35
  -1  -7 -13   69.91    8.67
   1  -7  14    7.44    1.94
   1  -7  14    5.98    1.99
   1  -7  14    8.00    1.98
   1   7  14    3.72    2.05
   1   7  14    3.30    2.97
   1   7  14    5.52    1.89
   1   7  14    4.87    2.31
  -1  -7 -14    5.82    2.22
  -1   7 -14    6.64    2.07
  -1   7 -14    6.57    2.55
  -1  -7 -14    6.82    2.39
  -1   7 -14    7.83    2.03
   1  -7  15    7.29    2.07
   1   7  15    8.25    2.50
   1  -7  15    6.84    1.93
   1   7  15    2.15    2.63
   1   7  15    3.42    2.79
   1  -7  15    4.80    1.83
  -1   7 -15    6.24    2.34
  -1   7 -15    6.20    2.03
  -1  -7 -15    5.31    2.02
  -1  -7 -15    5.29    2.41
  -1   7 -15    6.00    2.10
   1  -7  16   43.84    4.47
   1  -7  16   50.36    5.72
   1   7  16   35.00    6.14
   1   7  16   33.47    7.69
   1   7  16   31.01    7.02
  -1   7 -16   45.06    6.72
  -1   7 -16   41.12    5.32
  -1  -7 -16   38.12    6.55
  -1  -7 -16   38.87    5.48
  -1   7 -16   42.66    5.97
   1   7  17   15.66    4.15
   1  -7  17   20.74    3.36
   1   7  17   14.26    5.34
   1  -7  17   20.18    3.59
  -1   7 -17   19.32    3.39
  -1   7 -17   18.72    4.18
  -1  -7 -17   21.35    4.34
   1  -7  18   10.80    2.63
   1  -7  18   14.95    2.78
   1   7  18    9.90    4.62
   1   7  18    8.82    3.29
  -1   7 -18   11.51    2.69
  -1   7 -18   14.15    3.02
  -1  -7 -18   10.20    3.34
   1  -7  19   20.08    3.39
   1   7  19   11.94    4.91
   1  -7  19   16.13    3.06
  -1   7 -19   15.17    3.02
  -1   7 -19   18.74    3.55
  -1   7 -19   14.93    2.95
  -1  -7 -19   20.00    4.14
   1  -7  20   36.13    4.71
   1   7  20   28.06    6.85
   1  -7  20   32.10    4.37
  -1   7 -20   31.30    4.18
  -1   7 -20   31.53    4.29
  -1   7 -20   30.72    3.92
  -1  -7 -20   33.73    5.76
   1  -7  21   16.95    2.81
   1  -7  21   19.54    2.68
   1   7  21   12.48    3.27
  -1   7 -21   13.72    2.89
  -1   7 -21   16.02    2.84
  -1   7 -21   15.01    3.11
  -1  -7 -21   17.51    3.86
   1  -7  22   26.50    3.97
   1   7  22   17.53    4.82
   1  -7  22   25.27    3.49
  -1   7 -22   20.47    3.26
  -1  -7 -22   26.08    4.30
  -1   7 -22   20.44    3.46
   1   7  23    1.35    2.04
   1  -7  23    2.86    1.23
   1  -7  23    2.35    1.53
  -1   7 -23    3.46    1.19
  -1   7 -23    3.19    1.32
  -1  -7 -23    3.57    1.65
   1   7  24    0.22    1.06
   1  -7  24   -0.22    0.91
   1  -7  24    2.19    0.70
  -1   7 -24    0.14    0.72
  -1   7 -24    0.11    0.73
  -1  -7 -24    0.43    0.88
   1  -8 -23   11.08    2.52
   1   8 -23    9.10    1.32
   1   8 -23   11.48    1.97
  -1  -8  23   10.37    2.11
   1   8 -22    0.69    0.97
   1  -8 -22    3.79    1.20
   1   8 -22    0.49    0.84
  -1   8  22   -0.07    1.22
  -1  -8  22    1.42    0.97
   1   8 -21   16.59    2.66
   1  -8 -21   16.08    3.39
   1   8 -21   13.59    2.77
  -1   8  21    0.62    2.80
  -1  -8  21   16.45    2.47
  -1  -8  21   13.81    2.32
   1  -8 -20    0.32    1.47
   1  -8 -20    8.90    2.38
   1   8 -20    5.96    2.13
   1   8 -20    7.92    1.86
  -1  -8  20    8.05    1.59
  -1   8  20    2.38    2.45
  -1   8  20    7.65    2.43
  -1  -8  20    7.63    1.90
   1  -8 -19    0.09    1.33
   1   8 -19    7.37    1.79
   1  -8 -19    7.02    2.27
   1   8 -19    6.92    1.91
  -1   8  19    8.84    2.32
  -1  -8  19    8.16    1.86
  -1  -8  19    5.81    1.43
  -1   8  19    0.03    2.07
  -1   8  19    1.05    2.31
   1   8 -18   19.16    3.81
   1   8 -18   21.99    3.84
   1  -8 -18   17.80    4.56
   1  -8 -18   24.64    3.20
  -1   8  18   12.54    4.41
  -1  -8  18   20.71    2.88
  -1   8  18   20.60    4.32
  -1  -8  18   21.66    3.53
  -1   8  18   20.24    4.81
   1  -8 -17    0.86    1.09
   1  -8 -17    1.15    1.62
   1   8 -17    3.40    1.24
   1   8 -17    0.15    1.08
   1   8 -17    0.53    1.29
  -1   8  17    1.03    1.59
  -1  -8  17    1.12    1.16
  -1  -8  17    2.93    0.98
  -1   8  17    0.12    1.53
  -1   8  17    0.06    1.62
   1  -8 -16    4.49    1.29
   1   8 -16    4.58    1.87
   1   8 -16    3.87    2.05
   1   8 -16    2.84    2.20
   1   8 -16    5.20    2.24
   1  -8 -16    4.87    2.02
  -1   8  16    7.84    1.99
  -1   8  16    8.80    2.54
  -1   8  16    1.93    2.40
  -1  -8  16    6.20    2.07
  -1  -8  16    6.90    1.48
   1  -8 -15    4.38    2.43
   1   8 -15    3.41    1.98
   1   8 -15    4.55    1.38
   1   8 -15    2.51    1.71
   1   8 -15    4.66    1.65
  -1   8  15    1.40    2.14
  -1  -8  15    3.44    1.32
  -1   8  15    5.93    2.39
  -1   8  15    4.31    1.55
  -1  -8  15    4.02    1.36
   1  -8 -14   17.74    4.21
   1   8 -14   17.34    3.43
   1   8 -14   12.87    2.49
   1   8 -14   16.48    3.38
   1  -8 -14   17.44    3.53
   1   8 -14   16.73    3.34
  -1  -8  14   17.18    2.46
  -1   8  14    9.70    3.53
  -1  -8  14   15.77    3.17
  -1   8  14   15.73    4.21
  -1   8  14   17.87    4.27
  -1  -8  14   19.31    3.38
   1  -8 -13    3.15    1.59
   1   8 -13    1.37    1.80
   1   8 -13    0.75    1.53
   1  -8 -13    3.80    1.90
   1   8 -13    3.51    1.71
   1   8 -13    1.17    1.55
  -1   8  13    4.25    1.98
  -1   8  13    0.03    1.63
  -1  -8  13    1.60    1.44
  -1  -8  13    3.52    1.21
  -1  -8  13    2.94    1.35
  -1  -8  13    3.89    1.42
  -1   8  13    3.33    1.90
   1   8 -12    2.21    1.36
   1   8 -12    0.56    1.47
   1   8 -12    0.83    1.49
   1  -8 -12    2.31    1.05
   1  -8 -12    5.09    1.66
   1   8 -12    1.45    1.15
  -1  -8  12    1.44    1.17
  -1  -8  12    2.48    1.26
  -1  -8  12    1.72    0.97
  -1  -8  12    2.10    1.17
  -1   8  12    1.12    1.90
  -1   8  12    0.01    1.39
  -1   8  12    5.21    1.75
   1   8 -11  162.48   15.99
   1   8 -11  156.64   15.12
   1   8 -11  162.97   15.14
   1   8 -11  145.01   15.58
   1   8 -11  173.39   16.92
   1  -8 -11  160.66   16.98
   1  -8 -11  162.63   15.53
  -1   8  11  150.18   15.35
  -1  -8  11  165.74   13.87
  -1  -8  11  175.02   13.33
  -1  -8  11  160.71   12.49
  -1   8  11  147.58   15.94
   1  -8 -10    0.49    1.27
   1   8 -10    0.14    1.11
   1   8 -10    0.52    1.27
   1   8 -10    0.21    1.18
   1   8 -10    0.96    1.29
   1   8 -10   -0.26    1.09
   1  -8 -10    2.83    1.29
  -1  -8  10    0.30    0.60
  -1  -8  10    1.03    0.81
  -1   8  10    3.59    1.40
  -1  -8  10    2.64    0.80
  -1   8  10    3.01    1.51
   1   8  -9  160.24   15.58
   1   8  -9  172.50   15.60
   1   8  -9  165.04   14.71
   1   8  -9  172.77   15.05
   1  -8  -9  181.29   17.46
   1  -8  -9  175.59   16.66
   1   8  -9  180.56   17.75
  -1   8   9  176.43   16.33
  -1  -8   9  172.71   12.32
  -1  -8   9  163.92   11.32
  -1  -8   9  189.97   13.76
  -1   8   9  167.57   18.37
   1   8  -8   15.30    3.23
   1   8  -8   19.02    3.32
   1   8  -8   21.67    4.16
   1   8  -8   24.77    3.89
   1  -8  -8   23.69    3.84
   1   8  -8   21.93    3.33
   1  -8  -8   21.93    3.81
  -1  -8   8   19.88    2.45
  -1  -8   8   18.70    2.29
  -1  -8   8   19.80    2.88
  -1   8   8   21.61    4.48
  -1   8   8   19.76    4.07
   1   8  -7  199.57   16.98
   1   8  -7  209.86   19.48
   1   8  -7  194.62   16.32
   1   8  -7  192.53   16.06
   1  -8  -7  208.48   18.23
   1   8  -7  204.38   18.21
   1  -8  -7  203.24   16.42
  -1   8   7  202.15   19.38
  -1  -8   7  202.53   13.57
  -1  -8   7  196.39   13.06
  -1   8   7  203.81   18.23
  -1  -8   7  209.97   14.48
   1  -8  -6   15.16    2.95
   1   8  -6   13.57    2.56
   1   8  -6   11.21    2.63
   1   8  -6   13.74    2.66
   1   8  -6   16.44    2.45
   1   8  -6   19.18    2.39
   1  -8  -6   15.09    2.13
  -1  -8   6   16.10    1.75
  -1  -8   6   15.01    2.15
  -1   8   6   15.94    2.56
  -1   8   6   18.00    3.79
  -1  -8   6   18.67    2.22
   1  -8  -5  210.28   17.34
   1   8  -5  219.97   18.08
   1   8  -5  212.15   17.64
   1   8  -5  209.60   18.72
   1   8  -5  203.99   15.91
   1   8  -5  213.47   16.60
   1  -8  -5  208.55   14.97
  -1   8   5  214.27   18.68
  -1   8   5  213.07   19.32
  -1  -8   5  205.34   13.63
  -1  -8   5  195.62   13.04
   1  -8  -4    5.33    1.41
   1   8  -4    3.36    1.32
   1   8  -4    4.21    1.57
   1   8  -4    2.29    1.43
   1   8  -4    3.95    1.07
   1   8  -4    7.58    1.73
   1  -8  -4    4.45    1.60
   1  -8  -4    5.57    1.28
  -1   8   4    8.73    2.03
  -1  -8   4    3.69    1.02
  -1  -8   4    4.77    1.17
  -1   8   4    2.89    1.75
   1   8  -3  136.71   12.14
   1  -8  -3  125.93   10.68
   1   8  -3  122.73   10.01
   1   8  -3  116.47    9.35
   1   8  -3  134.72   11.23
   1   8  -3  123.60   10.28
   1  -8  -3  127.53    8.78
   1  -8  -3  126.77    8.88
  -1   8   3  131.08   10.71
  -1   8   3  134.98   11.23
  -1  -8   3  116.82    8.31
  -1  -8   3  118.72    8.50
   1  -8  -2   35.26    4.07
   1   8  -2   31.84    3.53
   1   8  -2   25.16    4.50
   1   8  -2   34.30    4.12
   1   8  -2   33.64    4.18
   1   8  -2   34.04    3.89
   1  -8  -2   36.51    2.95
   1  -8  -2   34.75    3.00
  -1   8   2   36.79    4.37
  -1  -8   2   26.63    2.53
  -1  -8   2   31.37    3.09
  -1  -8   2   35.40    2.99
  -1   8   2   50.74    5.28
   1   8  -1   40.63    4.73
   1   8  -1   46.48    4.99
   1  -8  -1   44.87    4.14
   1  -8  -1   47.74    4.29
   1  -8  -1   46.76    4.82
   1   8  -1   51.90    5.18
   1   8  -1   42.39    4.87
   1   8  -1   43.68    5.94
  -1  -8   1   49.16    3.71
  -1  -8   1   41.79    3.92
  -1   8   1   55.13    5.87
  -1   8   1   51.16    5.38
   1  -8   0   10.81    1.64
   1   8   0    8.57    2.04
   1   8   0   11.69    2.03
   1   8   0   13.17    2.33
   1   8   0   10.48    1.57
   1   8   0   11.26    2.52
   1  -8   0    8.96    1.68
   1  -8   0   12.88    2.12
  -1  -8   0   10.48    1.75
  -1  -8   0   11.87    1.64
  -1   8   0    7.90    2.55
  -1   8   0   12.88    2.47
  -1   8   0   11.84    2.27
   1  -8   1  170.09   13.21
   1  -8   1  178.07   11.60
   1   8   1  162.94   13.61
   1   8   1  163.65   13.49
   1   8   1  167.65   13.38
   1   8   1  166.79   13.84
   1   8   1  175.74   12.64
   1  -8   1  166.71   11.27
  -1   8  -1  172.26   14.65
  -1   8  -1  174.84   14.11
  -1   8  -1  170.46   15.42
  -1  -8  -1  157.68   11.72
  -1  -8  -1  162.39   10.61
   1   8   2    2.06    1.10
   1  -8   2    2.79    0.83
   1  -8   2    2.82    0.79
   1   8   2    0.82    1.11
   1   8   2    1.06    0.90
   1   8   2    0.59    1.13
   1   8   2    1.44    0.79
   1  -8   2    3.70    1.02
  -1   8  -2    0.40    1.33
  -1  -8  -2    1.84    0.94
  -1  -8  -2    1.46    0.85
  -1   8  -2    2.99    1.14
  -1   8  -2    2.07    1.22
   1  -8   3  422.13   29.13
   1  -8   3  454.76   27.23
   1   8   3  396.67   32.82
   1   8   3  371.22   28.24
   1   8   3  408.71   30.21
   1   8   3  429.46   32.34
   1   8   3  426.25   31.31
   1  -8   3  437.45   26.75
  -1   8  -3  389.93   27.07
  -1  -8  -3  411.15   26.45
  -1  -8  -3  390.95   27.89
  -1   8  -3  425.07   33.74
  -1   8  -3  415.15   31.11
  -1   8  -3  437.75   33.06
   1  -8   4   56.15    4.61
   1   8   4   52.22    5.76
   1   8   4   41.42    5.46
   1   8   4   49.29    6.47
   1   8   4   48.06    6.06
   1   8   4   51.59    5.75
   1  -8   4   48.08    4.33
   1  -8   4   52.06    4.25
   1  -8   4   51.58    4.34
  -1   8  -4   52.50    5.70
  -1  -8  -4   52.40    4.95
  -1  -8  -4   48.10    5.05
  -1   8  -4   56.37    5.90
  -1   8  -4   49.58    5.25
  -1   8  -4   49.38    4.82
   1  -8   5  460.03   27.76
   1  -8   5  413.94   25.66
   1  -8   5  412.38   28.87
   1   8   5  434.01   34.23
   1   8   5  418.34   31.77
   1   8   5  418.31   34.36
   1   8   5  432.01   33.18
   1   8   5  414.33   34.93
   1  -8   5  419.69   29.21
  -1   8  -5  445.78   34.41
  -1   8  -5  425.66   35.27
  -1   8  -5  419.51   32.37
  -1  -8  -5  408.91   30.22
  -1  -8  -5  429.63   29.36
  -1   8  -5  413.97   29.25
   1  -8   6  186.10   12.15
   1  -8   6  172.69   13.28
   1  -8   6  179.25   11.68
   1   8   6  177.55   14.84
   1   8   6  172.84   14.75
   1   8   6  165.07   15.86
   1   8   6  173.19   16.70
   1  -8   6  163.62   13.04
   1   8   6  167.25   15.71
  -1   8  -6  165.03   15.04
  -1   8  -6  172.94   15.09
  -1  -8  -6  168.78   13.80
  -1  -8  -6  173.19   12.78
  -1   8  -6  179.60   14.95
   1  -8   7  469.26   30.27
   1  -8   7  451.71   31.97
   1   8   7  426.61   36.67
   1   8   7  459.38   40.16
   1   8   7  500.79   41.47
   1   8   7  477.07   37.06
   1   8   7  455.46   35.63
   1  -8   7  490.23   34.11
  -1   8  -7  463.07   36.69
  -1   8  -7  458.46   35.33
  -1   8  -7  453.15   39.37
  -1  -8  -7  459.78   35.37
  -1  -8  -7  457.74   33.34
   1  -8   8  136.86   11.16
   1  -8   8  137.74   11.12
   1   8   8  112.74   12.50
   1   8   8  121.23   13.25
   1   8   8  115.71   11.56
   1   8   8  126.76   13.48
   1   8   8  124.94   11.83
   1  -8   8  127.75   10.04
  -1   8  -8  117.90   11.30
  -1   8  -8  123.69   11.91
  -1   8  -8  131.56   13.78
  -1  -8  -8  118.04   11.03
  -1  -8  -8  116.88   11.12
   1  -8   9   71.68    6.62
   1  -8   9   72.91    7.27
   1   8   9   67.55    7.72
   1   8   9   74.98    8.91
   1   8   9   70.38    7.97
   1   8   9   69.57    7.83
   1   8   9   62.94    8.39
   1  -8   9   70.67    6.84
  -1   8  -9   70.53    7.96
  -1   8  -9   70.70    7.69
  -1   8  -9   74.70    9.08
  -1  -8  -9   68.91    7.63
  -1  -8  -9   68.39    7.36
   1  -8  10    3.27    0.94
   1  -8  10    5.20    1.33
   1  -8  10    2.28    0.95
   1   8  10    3.83    1.76
   1   8  10    2.85    1.38
   1   8  10    3.02    1.93
   1   8  10    3.89    1.88
   1   8  10    3.60    1.64
  -1   8 -10    3.39    1.64
  -1   8 -10    2.80    1.42
  -1  -8 -10    2.92    1.64
  -1  -8 -10    4.72    1.53
   1  -8  11   15.48    2.48
   1  -8  11   13.26    2.38
   1   8  11   12.37    3.10
   1   8  11   10.18    2.99
   1   8  11   10.75    2.88
   1   8  11   12.03    3.48
   1   8  11   10.42    3.47
   1  -8  11   10.63    2.44
  -1   8 -11   15.40    2.89
  -1   8 -11   16.18    3.42
  -1  -8 -11   10.63    2.85
  -1  -8 -11    9.94    2.10
   1  -8  12   12.94    2.52
   1  -8  12   16.38    2.66
   1  -8  12   14.40    2.62
   1   8  12   10.66    3.82
   1   8  12   12.83    3.99
   1   8  12   14.57    3.19
   1   8  12   10.99    3.22
   1   8  12   15.16    3.31
  -1   8 -12   15.37    3.50
  -1   8 -12   15.89    3.15
  -1  -8 -12   13.42    3.09
  -1  -8 -12   13.83    3.15
   1  -8  13    9.85    2.11
   1  -8  13    8.11    2.09
   1  -8  13   11.42    2.25
   1   8  13    8.40    2.85
   1   8  13    7.39    2.42
   1   8  13    7.58    2.57
   1   8  13    5.38    3.60
   1   8  13   11.70    3.40
  -1   8 -13    7.90    1.82
  -1   8 -13   11.46    3.13
  -1  -8 -13    8.98    2.77
  -1  -8 -13    8.56    2.57
   1  -8  14   59.23    6.23
   1  -8  14   59.17    6.82
   1   8  14   53.30    7.33
   1   8  14   51.24    6.96
   1   8  14   42.28    8.26
   1   8  14   46.65    8.48
   1  -8  14   57.93    6.55
  -1   8 -14   57.83    7.31
  -1   8 -14   56.83    6.69
  -1  -8 -14   55.27    7.55
  -1  -8 -14   51.59    6.91
   1  -8  15    0.13    1.23
   1   8  15    0.06    1.97
   1   8  15    0.16    1.53
   1  -8  15    4.54    1.16
  -1   8 -15    2.66    1.31
  -1   8 -15    0.12    1.66
  -1  -8 -15    1.34    1.56
   1  -8  16   24.49    3.64
   1   8  16   18.47    5.39
   1  -8  16   25.41    3.66
  -1   8 -16   20.11    3.78
  -1   8 -16   18.22    4.33
  -1  -8 -16   19.38    4.61
   1  -8  17   45.57    4.67
   1  -8  17   47.50    5.91
   1   8  17   38.36    8.14
  -1   8 -17   48.88    6.00
  -1   8 -17   48.31    6.81
  -1  -8 -17   48.32    7.66
   1  -8  18    0.28    0.99
   1   8  18    0.21    1.98
   1  -8  18    4.14    1.12
  -1   8 -18    0.19    1.06
  -1   8 -18   -0.01    1.06
  -1   8 -18    3.07    1.24
  -1  -8 -18    0.97    1.45
   1  -8  19   15.81    3.10
   1   8  19   11.96    4.60
   1  -8  19   15.42    2.80
  -1   8 -19   15.95    2.85
  -1   8 -19   16.81    3.15
  -1  -8 -19   13.51    3.63
   1  -8  20    4.76    1.25
   1   8  20    3.63    2.35
   1  -8  20    4.25    1.37
  -1   8 -20    0.25    1.25
  -1  -8 -20    4.78    1.87
  -1   8 -20    4.03    1.40
  -1   8 -20    5.14    1.65
   1  -8  21   45.64    4.70
   1   8  21   38.01    7.61
   1  -8  21   52.58    5.73
  -1   8 -21   46.12    5.23
  -1  -8 -21   43.50    5.96
  -1   8 -21   38.76    4.72
   1   8  22    1.40    1.84
   1  -8  22    2.32    1.05
   1  -8  22    3.30    1.31
  -1   8 -22    0.49    1.29
  -1  -8 -22    3.11    1.45
  -1   8 -22    3.08    1.09
   1  -8  23   33.28    3.55
   1   8  23   32.21    4.84
   1  -8  23   35.22    4.28
  -1   8 -23   32.31    3.79
   1  -9 -22    2.20    0.97
   1   9 -22    0.24    0.82
   1   9 -22    2.13    0.73
  -1  -9  22   -0.12    0.75
   1  -9 -21    2.64    1.29
   1   9 -21    3.39    1.06
   1   9 -21    0.93    1.19
  -1   9  21    3.57    1.70
  -1  -9  21    0.87    1.12
   1   9 -20   12.28    2.02
   1   9 -20   10.30    1.90
   1  -9 -20   11.17    2.35
   1  -9 -20   -0.21    1.52
  -1   9  20   -0.09    2.25
  -1  -9  20   14.63    1.96
   1  -9 -19    2.64    1.74
   1   9 -19    3.32    1.32
   1   9 -19    4.29    1.45
   1  -9 -19   -0.09    1.08
  -1  -9  19    4.42    1.39
  -1   9  19    6.59    1.77
  -1   9  19    0.50    1.55
   1  -9 -18   10.62    2.18
   1   9 -18   10.70    2.45
   1   9 -18   11.49    2.48
   1  -9 -18   12.12    3.09
  -1   9  18   11.09    3.07
  -1  -9  18   11.22    2.41
  -1  -9  18   10.00    1.92
  -1   9  18    0.39    2.55
   1  -9 -17    1.40    0.79
   1   9 -17    2.88    1.16
   1   9 -17    0.47    1.26
   1  -9 -17    0.34    1.54
  -1   9  17    0.76    1.61
  -1  -9  17    2.08    0.99
  -1  -9  17    1.21    1.21
  -1   9  17    3.77    1.66
   1  -9 -16    0.47    1.44
   1   9 -16    0.05    1.03
   1   9 -16    1.89    1.20
   1   9 -16    0.48    0.77
   1  -9 -16    1.25    1.05
  -1   9  16    2.72    1.51
  -1   9  16    0.91    1.46
  -1  -9  16    2.27    1.03
  -1  -9  16    0.85    0.79
   1  -9 -15    3.35    1.35
   1   9 -15   -0.04    1.03
   1   9 -15    0.39    0.79
   1   9 -15   -0.10    1.19
   1   9 -15    6.54    1.38
   1  -9 -15    0.05    1.08
  -1  -9  15    0.92    1.07
  -1  -9  15    0.88    0.81
  -1   9  15    0.28    1.48
  -1   9  15    0.87    1.59
   1  -9 -14    9.54    2.61
   1   9 -14    8.25    2.39
   1   9 -14    9.91    2.51
   1   9 -14    7.18    2.36
   1   9 -14   10.02    2.70
   1  -9 -14    8.11    2.99
  -1  -9  14    9.08    2.46
  -1  -9  14    7.80    1.79
  -1   9  14    7.87    3.24
  -1   9  14   10.09    3.28
   1  -9 -13   20.19    3.79
   1   9 -13   18.20    3.48
   1   9 -13   14.76    3.37
   1   9 -13   18.52    4.10
   1   9 -13   13.89    3.66
   1  -9 -13   18.18    4.44
  -1   9  13   20.33    4.64
  -1  -9  13   17.79    3.60
  -1  -9  13   15.71    2.56
  -1   9  13   15.11    4.48
   1  -9 -12  206.60   20.76
   1   9 -12  197.84   19.69
   1   9 -12  187.15   18.25
   1   9 -12  194.66   17.22
   1   9 -12  218.24   21.23
   1  -9 -12  207.77   20.28
   1  -9 -12  221.82   20.07
  -1   9  12  204.71   20.04
  -1  -9  12  209.00   18.42
  -1  -9  12  141.13   15.18
  -1  -9  12  201.48   15.44
  -1   9  12  200.39   22.23
   1  -9 -11    9.24    2.31
   1   9 -11    6.04    2.64
   1   9 -11   12.29    3.12
   1   9 -11   10.58    2.97
   1   9 -11   11.27    2.46
   1  -9 -11    8.15    2.94
   1  -9 -11    9.71    3.21
  -1  -9  11   10.22    1.99
  -1  -9  11   10.85    1.76
  -1  -9  11    9.87    2.34
  -1   9  11   11.72    3.75
  -1   9  11    9.20    3.37
   1  -9 -10   21.88    4.79
   1  -9 -10   23.08    4.48
   1   9 -10   23.74    3.66
   1   9 -10   29.07    4.93
   1   9 -10   23.55    3.51
   1   9 -10   25.07    4.00
   1   9 -10   17.78    3.09
   1  -9 -10   24.88    4.40
  -1  -9  10   26.45    3.21
  -1  -9  10   23.23    3.45
  -1   9  10   23.88    5.05
  -1   9  10   23.36    4.21
   1  -9  -9   38.51    5.49
   1   9  -9   33.59    5.64
   1   9  -9   33.48    4.89
   1   9  -9   35.97    4.85
   1   9  -9   37.27    5.86
   1   9  -9   28.38    4.87
   1  -9  -9   36.84    5.14
   1  -9  -9   27.26    4.82
  -1   9   9   30.28    5.82
  -1  -9   9   38.79    4.66
  -1  -9   9   36.94    3.58
  -1  -9   9   30.31    3.94
  -1   9   9   36.88    6.42
   1  -9  -8    2.53    1.49
   1   9  -8    2.85    1.66
   1   9  -8    5.58    1.74
   1   9  -8    0.67    1.26
   1   9  -8    2.54    1.38
   1   9  -8    3.06    1.48
   1  -9  -8    2.84    1.11
   1  -9  -8    1.60    1.02
  -1  -9   8    2.57    0.91
  -1  -9   8    1.93    1.06
  -1  -9   8    2.12    1.20
  -1   9   8    4.71    1.85
  -1   9   8    1.82    1.72
   1  -9  -7   16.27    3.42
   1  -9  -7   21.44    3.30
   1   9  -7   18.26    3.59
   1   9  -7   17.15    3.17
   1   9  -7   13.08    3.08
   1   9  -7   20.37    3.10
   1   9  -7   19.42    3.34
   1  -9  -7   22.08    3.34
  -1   9   7   15.60    3.94
  -1  -9   7   18.73    2.45
  -1  -9   7   17.70    2.50
  -1  -9   7   20.18    2.84
  -1   9   7   21.41    4.83
   1  -9  -6    9.75    2.24
   1  -9  -6   11.29    2.51
   1   9  -6    9.31    2.12
   1   9  -6    8.09    2.16
   1   9  -6    5.61    2.19
   1   9  -6    8.07    2.00
   1   9  -6    7.61    1.87
   1  -9  -6   10.80    2.24
  -1   9   6   10.96    3.40
  -1   9   6    7.75    2.74
  -1  -9   6    9.11    1.84
  -1  -9   6    8.76    1.66
  -1  -9   6    9.68    1.89
   1  -9  -5    6.03    1.91
   1  -9  -5    7.15    1.71
   1   9  -5    5.99    1.71
   1   9  -5    2.38    1.64
   1   9  -5    5.44    1.61
   1   9  -5    3.78    1.38
   1  -9  -5    4.85    1.61
  -1   9   5    5.22    2.39
  -1   9   5    6.68    2.13
  -1  -9   5    5.21    1.32
  -1  -9   5    5.64    1.40
  -1  -9   5    6.22    1.44
   1  -9  -4   15.23    2.93
   1  -9  -4   13.85    2.72
   1   9  -4   15.62    3.41
   1   9  -4   13.62    2.72
   1   9  -4   11.88    2.94
   1   9  -4   16.43    3.04
   1  -9  -4   17.07    2.48
  -1   9   4   19.09    3.78
  -1  -9   4   13.59    2.17
  -1  -9   4   13.25    2.02
  -1   9   4   14.79    3.33
   1  -9  -3   22.00    3.44
   1  -9  -3   20.78    3.21
   1   9  -3   23.58    3.57
   1   9  -3   16.70    3.35
   1   9  -3   24.07    3.83
   1   9  -3   19.11    3.18
   1   9  -3   17.93    2.86
   1  -9  -3   25.19    3.09
  -1   9   3   22.25    3.94
  -1   9   3   24.63    3.40
  -1  -9   3   21.22    2.56
  -1  -9   3   20.07    2.50
   1  -9  -2    2.69    1.01
   1  -9  -2    1.62    1.02
   1   9  -2    2.28    1.05
   1   9  -2    2.32    1.13
   1   9  -2    5.54    1.25
   1   9  -2    0.42    1.14
   1   9  -2    0.68    1.40
   1  -9  -2    3.81    1.25
  -1   9   2    3.58    1.41
  -1  -9   2    0.49    0.85
  -1  -9   2    1.66    0.90
  -1   9   2    1.56    1.10
   1  -9  -1   12.78    2.07
   1  -9  -1   14.36    2.49
   1   9  -1   11.00    2.48
   1   9  -1   12.34    2.25
   1   9  -1   15.10    2.75
   1   9  -1   13.58    3.21
   1   9  -1   10.67    2.44
   1  -9  -1   13.34    2.14
  -1  -9   1   11.09    1.85
  -1  -9   1   11.49    1.66
  -1   9   1   14.73    3.15
  -1   9   1   12.06    2.05
  -1  -9   1   14.70    1.92
   1  -9   0    0.27    0.69
   1  -9   0    1.95    0.83
   1  -9   0    0.10    0.67
   1   9   0    0.60    0.65
   1   9   0   -0.01    0.79
   1   9   0    0.16    0.76
   1   9   0   -0.27    0.81
   1   9   0   -0.32    1.06
  -1   9   0    2.87    0.98
  -1   9   0    0.84    1.06
  -1  -9   0   -0.09    0.66
  -1  -9   0    2.56    0.66
   1  -9   1   13.63    1.98
   1  -9   1   11.56    1.90
   1  -9   1   13.64    2.35
   1   9   1   12.58    2.66
   1   9   1   12.05    3.17
   1   9   1   12.79    2.44
   1   9   1    9.50    2.49
   1   9   1   13.40    2.55
  -1   9  -1   14.05    2.81
  -1  -9  -1   11.16    2.02
  -1  -9  -1   12.90    2.12
  -1   9  -1   12.46    2.85
  -1   9  -1   15.06    2.88
   1  -9   2  180.25   13.29
   1   9   2  159.05   15.05
   1   9   2  167.25   14.12
   1   9   2  159.07   13.56
   1   9   2  163.46   14.48
   1   9   2  178.18   15.32
   1  -9   2  165.71   13.85
   1  -9   2  173.05   12.19
  -1   9  -2  168.33   15.94
  -1   9  -2  163.14   15.01
  -1  -9  -2  149.60   12.19
  -1   9  -2  173.27   16.19
  -1  -9  -2  169.91   12.90
   1  -9   3    0.06    0.70
   1   9   3    0.04    0.64
   1   9   3    0.57    0.98
   1   9   3    0.30    0.92
   1   9   3   -0.22    1.17
   1   9   3    2.20    0.97
   1  -9   3    0.02    0.86
   1  -9   3   -0.04    0.79
   1  -9   3   -0.11    0.64
  -1   9  -3    1.82    0.70
  -1   9  -3    0.20    1.03
  -1   9  -3    4.81    1.17
  -1  -9  -3    0.90    0.80
  -1  -9  -3    1.82    0.80
   1  -9   4   23.92    3.01
   1  -9   4   22.92    2.45
   1   9   4   20.97    3.47
   1   9   4   19.91    3.68
   1   9   4   20.62    3.81
   1   9   4   23.06    3.55
   1   9   4   22.05    3.66
   1  -9   4   21.41    2.53
   1  -9   4   22.59    2.56
  -1   9  -4   21.42    3.89
  -1   9  -4   21.10    3.29
  -1   9  -4   23.30    3.73
  -1  -9  -4   22.18    3.31
  -1  -9  -4   26.65    3.61
   1  -9   5    0.15    0.94
   1   9   5   -0.56    1.43
   1   9   5    0.24    1.09
   1   9   5   -0.01    1.27
   1   9   5   -0.11    1.13
   1   9   5    0.29    1.10
   1  -9   5    2.96    0.91
   1  -9   5    2.08    0.74
  -1   9  -5    0.50    1.26
  -1   9  -5   -0.43    1.07
  -1  -9  -5    2.76    1.06
  -1  -9  -5    3.03    0.95
  -1   9  -5   -0.55    1.14
   1  -9   6  231.71   18.01
   1  -9   6  250.61   16.92
   1  -9   6  223.11   17.96
   1   9   6  210.96   19.99
   1   9   6  238.61   20.52
   1   9   6  256.41   21.00
   1   9   6  236.58   21.99
   1   9   6  244.92   23.91
  -1   9  -6  235.62   21.08
  -1   9  -6  244.85   23.03
  -1  -9  -6  239.20   19.36
  -1   9  -6  242.19   20.77
  -1  -9  -6  232.58   19.39
   1  -9   7   24.51    3.52
   1  -9   7   27.72    3.73
   1   9   7   24.89    4.10
   1   9   7   22.84    4.29
   1   9   7   28.24    4.22
   1   9   7   22.54    4.24
   1   9   7   24.30    5.24
   1  -9   7   28.72    3.27
  -1   9  -7   27.67    4.27
  -1   9  -7   26.88    4.85
  -1   9  -7   26.72    4.16
  -1  -9  -7   25.70    3.17
  -1  -9  -7   22.75    3.78
   1  -9   8   21.37    3.51
   1   9   8   19.08    3.72
   1   9   8   26.65    4.65
   1   9   8   22.50    3.50
   1   9   8   21.32    4.55
   1   9   8   17.64    3.22
   1  -9   8   22.77    2.94
   1  -9   8   19.66    3.25
  -1   9  -8   20.89    3.77
  -1   9  -8   18.79    3.23
  -1  -9  -8   21.44    3.48
  -1  -9  -8   21.06    3.67
  -1   9  -8   21.92    3.58
   1  -9   9    3.82    1.28
   1  -9   9    2.82    1.41
   1   9   9    3.54    2.05
   1   9   9    2.14    1.89
   1   9   9    4.39    1.77
   1   9   9    5.78    2.13
   1   9   9    3.65    1.71
   1  -9   9    4.53    1.42
  -1   9  -9    4.53    1.49
  -1   9  -9    2.64    1.64
  -1   9  -9    1.82    1.16
  -1  -9  -9    2.35    1.56
  -1  -9  -9    4.03    1.67
   1  -9  10  102.54    9.50
   1  -9  10  107.23    9.11
   1   9  10  100.74   12.11
   1   9  10  101.59   12.75
   1   9  10  106.55   12.59
   1   9  10  104.30   11.21
   1   9  10  101.09   11.01
   1  -9  10  114.23    9.66
  -1   9 -10  101.83   10.80
  -1  -9 -10   98.43   10.50
  -1  -9 -10  109.75   11.04
  -1   9 -10  112.44   12.46
  -1   9 -10  110.10   11.18
   1  -9  11    6.22    1.75
   1  -9  11    5.99    1.71
   1  -9  11    6.01    1.72
   1   9  11    3.29    2.50
   1   9  11    8.12    2.22
   1   9  11    4.51    2.40
   1   9  11    7.80    2.18
   1   9  11    5.53    2.63
  -1   9 -11    4.63    2.29
  -1  -9 -11    5.13    2.17
  -1  -9 -11    5.45    1.95
  -1   9 -11    6.69    2.39
   1  -9  12    2.85    1.14
   1  -9  12    4.25    1.32
   1   9  12    0.85    1.56
   1   9  12    4.07    1.54
   1   9  12    0.22    1.60
   1   9  12    1.36    1.82
   1   9  12    0.83    2.01
   1  -9  12    2.71    1.31
  -1   9 -12    4.07    1.75
  -1   9 -12    1.88    1.66
  -1  -9 -12    2.73    1.55
  -1  -9 -12    1.07    1.45
   1  -9  13    3.26    1.28
   1  -9  13    2.33    1.14
   1   9  13    0.73    1.51
   1   9  13   -0.03    1.51
   1   9  13    0.66    1.71
  -1   9 -13    0.92    1.20
  -1  -9 -13    2.68    1.51
  -1   9 -13    2.50    1.42
   1  -9  14    8.74    2.02
   1  -9  14    7.43    2.08
   1   9  14    5.37    3.18
  -1   9 -14    8.87    2.34
  -1  -9 -14    8.72    2.69
  -1   9 -14    7.37    2.61
   1  -9  15    9.20    2.28
   1   9  15    6.62    3.20
   1  -9  15    8.44    2.16
  -1   9 -15    9.38    2.81
  -1  -9 -15    7.72    2.80
  -1   9 -15   10.31    2.50
   1  -9  16   12.92    2.50
   1  -9  16   11.42    2.31
   1   9  16    7.71    3.41
  -1   9 -16   10.84    2.70
  -1   9 -16   15.44    3.11
  -1  -9 -16   10.12    2.98
   1  -9  17   11.61    2.50
   1  -9  17   15.27    2.61
   1   9  17   10.75    3.96
  -1   9 -17   16.64    3.14
  -1  -9 -17   13.22    3.19
  -1   9 -17   12.47    2.71
   1  -9  18    4.74    1.33
   1   9  18    2.66    2.37
   1  -9  18    4.10    1.61
  -1   9 -18    5.00    1.62
  -1  -9 -18    3.91    1.89
  -1   9 -18    3.85    1.69
   1  -9  19    1.48    0.97
   1   9  19    0.02    1.37
   1  -9  19    1.23    0.85
  -1   9 -19    0.70    0.99
  -1   9 -19    2.04    0.93
  -1  -9 -19    0.29    1.17
   1  -9  20    5.04    1.29
   1  -9  20    4.45    1.61
   1   9  20    1.65    1.89
  -1   9 -20    4.07    1.35
  -1  -9 -20    4.59    2.08
  -1   9 -20    5.51    1.54
   1  -9  21    0.06    0.85
   1   9  21    0.00    1.04
   1  -9  21    0.35    0.67
  -1   9 -21    0.34    0.75
  -1  -9 -21    2.51    1.12
  -1  -9 -21    2.04    0.79
  -1   9 -22   15.80    2.31
   1 -10 -20    3.89    1.44
   1  10 -20    3.38    1.13
   1  10 -20    1.73    1.04
  -1 -10  20    3.04    1.13
   1 -10 -19   13.65    2.36
   1 -10 -19    1.43    1.45
   1  10 -19   13.33    1.97
   1  10 -19   12.50    1.81
  -1 -10  19   13.42    1.96
  -1  10  19   -0.43    2.78
   1  10 -18    2.07    0.85
   1  10 -18   -0.13    0.90
   1 -10 -18    1.88    0.75
   1 -10 -18    0.39    1.07
  -1 -10  18    0.46    0.87
  -1  10  18    0.30    1.17
  -1  10  18    0.41    1.01
   1  10 -17    0.29    0.96
   1  10 -17   -0.10    0.94
   1 -10 -17    1.51    0.86
   1 -10 -17    1.11    1.09
  -1  10  17    0.51    1.18
  -1  10  17    0.92    1.12
  -1 -10  17    1.20    0.90
   1 -10 -16   24.88    3.43
   1  10 -16   19.55    3.21
   1  10 -16   21.61    3.73
   1 -10 -16   19.54    3.87
  -1 -10  16   23.73    3.14
  -1  10  16   19.05    4.15
  -1  10  16   12.79    3.88
   1 -10 -15   11.50    2.65
   1  10 -15   11.96    2.86
   1  10 -15   11.30    2.56
   1 -10 -15   11.00    3.08
   1  10 -15   12.56    2.52
  -1  10  15   10.66    3.39
  -1 -10  15   12.40    2.52
  -1  10  15   10.91    3.48
   1 -10 -14   35.51    5.97
   1 -10 -14   41.16    5.17
   1  10 -14   36.81    4.83
   1  10 -14   34.47    5.61
   1  10 -14   32.77    5.01
   1  10 -14   36.63    5.17
  -1 -10  14   40.08    4.93
  -1  10  14   39.46    6.88
  -1  10  14   36.64    6.35
   1  10 -13   75.58    8.58
   1  10 -13   89.26    8.94
   1  10 -13   78.99    9.34
   1  10 -13   91.35    9.04
   1 -10 -13   85.12   10.31
   1 -10 -13   85.74    9.61
  -1 -10  13   80.80    6.99
  -1 -10  13   87.30    8.76
  -1  10  13   76.95   10.94
  -1  10  13   89.56   11.81
   1 -10 -12    0.18    0.85
   1  10 -12    3.69    1.19
   1  10 -12    0.23    0.99
   1  10 -12    0.31    1.07
   1  10 -12    0.58    1.13
   1 -10 -12   -0.18    0.79
  -1  10  12    0.75    1.37
  -1 -10  12    2.97    0.98
  -1 -10  12    0.29    0.75
  -1  10  12    0.29    0.99
   1  10 -11   27.58    4.86
   1  10 -11   18.63    4.21
   1  10 -11   21.09    3.80
   1  10 -11   24.16    4.38
   1 -10 -11   28.52    4.85
   1 -10 -11   28.18    4.68
  -1 -10  11   23.85    3.70
  -1 -10  11   22.94    3.16
  -1  10  11   22.91    5.30
  -1  10  11   26.37    5.66
   1  10 -10    0.04    1.10
   1  10 -10    0.75    1.19
   1  10 -10    0.34    0.99
   1  10 -10    0.25    1.15
   1 -10 -10    0.43    1.15
   1 -10 -10    1.37    1.13
  -1 -10  10    0.33    0.90
  -1 -10  10    0.24    0.78
  -1  10  10    1.60    1.56
  -1  10  10    4.24    1.43
   1 -10  -9    0.77    1.23
   1  10  -9    0.57    1.11
   1  10  -9    0.32    1.19
   1  10  -9    0.82    1.22
   1  10  -9    0.82    1.45
   1  10  -9    1.02    1.50
   1 -10  -9    0.78    1.35
  -1  10   9    4.64    1.59
  -1 -10   9    2.28    0.93
  -1  10   9    1.39    1.27
   1 -10  -8    5.16    1.83
   1  10  -8    4.50    2.02
   1  10  -8    4.79    1.84
   1  10  -8    2.99    1.65
   1  10  -8    3.46    1.58
   1  10  -8    0.23    1.58
   1 -10  -8    5.32    1.69
   1 -10  -8    2.99    1.81
  -1 -10   8    3.69    1.26
  -1  10   8    2.70    2.42
  -1  10   8    3.28    2.19
   1 -10  -7    3.55    1.92
   1 -10  -7    3.43    1.93
   1  10  -7    1.48    1.70
   1  10  -7    5.20    2.12
   1  10  -7    5.40    1.74
   1  10  -7    5.60    2.18
   1 -10  -7    3.41    1.80
  -1 -10   7    4.15    1.69
  -1 -10   7    4.85    1.31
  -1  10   7    7.85    2.61
  -1  10   7    4.66    2.21
   1 -10  -6   42.49    4.78
   1  10  -6   37.64    4.88
   1  10  -6   41.84    5.82
   1  10  -6   40.31    6.68
   1  10  -6   34.31    4.93
   1 -10  -6   42.40    5.16
   1 -10  -6   36.47    5.24
  -1  10   6   44.65    6.51
  -1 -10   6   38.22    4.09
  -1 -10   6   39.00    4.74
  -1  10   6   40.89    6.08
   1 -10  -5    0.60    0.71
   1  10  -5   -0.02    0.91
   1  10  -5    0.28    0.93
   1  10  -5    0.05    0.77
   1  10  -5    0.72    0.90
   1 -10  -5    0.05    0.88
   1 -10  -5    0.36    0.90
  -1 -10   5    2.08    0.81
  -1 -10   5    0.15    0.80
  -1  10   5    0.77    1.17
  -1  10   5    3.04    1.30
   1  10  -4  101.94   12.28
   1  10  -4   98.64   10.17
   1  10  -4  110.42   11.24
   1  10  -4  101.04   10.50
   1 -10  -4  110.08   11.31
   1 -10  -4  100.53    9.63
   1 -10  -4  120.40   10.26
  -1  10   4  118.11   13.54
  -1 -10   4  105.05    9.24
  -1 -10   4  106.34    8.55
  -1  10   4  117.46   12.93
   1 -10  -3   16.42    2.39
   1  10  -3   29.80    3.45
   1  10  -3   19.85    3.55
   1  10  -3   17.17    3.14
   1  10  -3   17.83    3.12
   1 -10  -3   18.46    3.21
   1 -10  -3   18.07    2.27
  -1  10   3   19.03    4.21
  -1  10   3   19.82    3.93
  -1 -10   3   17.26    2.97
  -1 -10   3   14.65    2.28
   1 -10  -2    6.02    1.71
   1  10  -2    8.04    2.23
   1  10  -2    1.87    1.91
   1  10  -2    7.83    2.54
   1  10  -2    5.24    1.93
   1  10  -2    5.46    1.78
   1 -10  -2    7.61    1.53
   1 -10  -2    5.66    1.87
  -1 -10   2    7.05    1.51
  -1  10   2    9.23    2.69
  -1  10   2   12.71    2.51
   1 -10  -1    9.81    2.29
   1 -10  -1    9.41    1.43
   1  10  -1    9.93    3.06
   1  10  -1    4.16    2.07
   1  10  -1    8.37    2.22
   1  10  -1    8.53    2.43
   1  10  -1    7.22    2.19
   1 -10  -1    7.73    1.94
  -1  10   1    8.52    2.67
  -1 -10   1    9.26    1.63
  -1  10   1    9.89    2.81
   1 -10   0   62.16    5.80
   1 -10   0   65.12    6.89
   1  10   0   52.61    6.39
   1  10   0   61.16    6.69
   1  10   0   61.53    8.69
   1  10   0   51.99    6.34
   1  10   0   58.93    6.95
   1 -10   0   65.92    6.85
  -1 -10   0   58.54    5.12
  -1 -10   0   52.84    5.24
  -1  10   0   62.81    7.02
  -1  10   0   62.38    7.83
   1 -10   1    9.35    1.56
   1  10   1    7.77    2.24
   1  10   1    8.11    3.11
   1  10   1    6.55    2.25
   1  10   1    7.97    2.39
   1  10   1   10.23    2.27
   1 -10   1    6.25    1.84
   1 -10   1    9.72    2.16
   1 -10   1   10.44    1.81
  -1  10  -1    7.99    2.62
  -1  10  -1   10.73    2.76
  -1 -10  -1    8.50    1.80
  -1 -10  -1    8.62    2.07
   1  10   2  123.83   12.63
   1  10   2  128.88   15.50
   1  10   2  130.06   11.64
   1  10   2  115.77   11.48
   1  10   2  130.99   12.21
   1 -10   2  117.45   11.48
   1 -10   2  135.02    9.94
   1 -10   2  129.53   11.71
   1 -10   2  138.79   11.75
  -1  10  -2  138.25   13.58
  -1 -10  -2  120.41   10.31
  -1 -10  -2  135.82   11.98
  -1  10  -2  136.07   14.31
   1  10   3  252.26   21.31
   1  10   3  259.95   22.83
   1  10   3  266.28   22.70
   1  10   3  266.89   27.17
   1  10   3  236.18   22.21
   1 -10   3  261.40   18.81
   1 -10   3  263.78   21.04
   1 -10   3  245.88   20.72
  -1  10  -3  272.36   23.10
  -1  10  -3  268.08   24.15
  -1 -10  -3  246.13   19.75
  -1 -10  -3  279.60   22.42
  -1  10  -3  261.74   24.17
   1  10   4   25.12    3.86
   1  10   4   23.69    4.86
   1  10   4   17.17    3.79
   1  10   4   15.29    2.88
   1  10   4   20.37    3.75
   1 -10   4   19.33    3.30
   1 -10   4   16.93    3.26
  -1  10  -4   21.48    4.04
  -1 -10  -4   18.89    2.99
  -1 -10  -4   20.92    3.66
  -1  10  -4   23.42    3.88
  -1  10  -4   19.99    3.86
   1 -10   5  131.66   10.73
   1  10   5  146.04   16.77
   1  10   5  140.52   13.75
   1  10   5  129.12   14.40
   1  10   5  137.31   13.75
   1  10   5  144.30   13.67
   1 -10   5  131.55   11.01
  -1  10  -5  146.22   14.71
  -1 -10  -5  139.65   12.07
  -1 -10  -5  151.22   13.81
  -1  10  -5  148.45   14.29
  -1  10  -5  140.83   14.59
   1 -10   6   37.50    4.61
   1  10   6   26.64    5.31
   1  10   6   37.51    6.45
   1  10   6   34.56    6.08
   1  10   6   34.16    5.24
   1  10   6   37.38    5.39
   1 -10   6   39.26    4.62
  -1  10  -6   36.80    5.80
  -1 -10  -6   41.71    5.65
  -1 -10  -6   37.84    4.89
  -1  10  -6   37.99    5.27
  -1  10  -6   38.09    5.41
   1  10   7   39.52    5.50
   1  10   7   31.26    5.69
   1  10   7   30.00    5.28
   1  10   7   35.18    6.39
   1  10   7   32.51    4.98
   1 -10   7   34.09    4.67
   1 -10   7   37.54    4.30
   1 -10   7   37.69    4.08
  -1  10  -7   36.11    5.37
  -1 -10  -7   31.70    4.90
  -1 -10  -7   36.17    5.35
  -1  10  -7   30.49    5.02
  -1  10  -7   36.17    5.69
   1 -10   8   13.66    2.54
   1 -10   8   13.71    2.50
   1  10   8    9.90    3.36
   1  10   8   11.03    3.67
   1  10   8   14.26    4.01
   1  10   8   19.15    3.53
   1  10   8   15.07    3.18
   1 -10   8   16.98    2.51
  -1  10  -8   14.25    3.43
  -1 -10  -8   14.51    2.98
  -1 -10  -8   12.77    3.35
  -1  10  -8   15.50    3.29
  -1  10  -8   16.79    3.35
   1 -10   9  139.61   11.19
   1 -10   9  120.44   10.84
   1  10   9  126.58   14.39
   1  10   9  124.62   12.71
   1  10   9  125.35   12.97
   1  10   9  127.42   14.17
  -1 -10  -9  124.70   12.22
  -1  10  -9  119.85   13.63
  -1  10  -9  134.84   14.62
  -1  10  -9  125.30   13.29
   1  10  10    3.83    1.69
   1  10  10    5.11    2.07
   1  10  10    3.58    2.15
   1 -10  10    4.75    1.27
   1 -10  10    6.74    1.55
  -1  10 -10    5.34    2.18
  -1 -10 -10    6.22    2.02
  -1  10 -10    3.60    1.95
  -1  10 -10    4.40    2.27
   1 -10  11   32.08    4.19
   1 -10  11   35.54    4.14
   1  10  11   25.48    5.47
   1  10  11   29.99    5.06
   1  10  11   33.01    5.75
  -1  10 -11   31.02    5.15
  -1 -10 -11   32.23    5.15
  -1  10 -11   30.74    5.19
   1 -10  12  115.86    9.64
   1  10  12  104.35   11.99
   1  10  12   89.66   12.17
   1 -10  12  110.81   10.52
  -1 -10 -12   93.39   10.70
  -1  10 -12  105.48   11.89
  -1  10 -12   99.60   11.05
   1 -10  13    2.76    1.21
   1  10  13    0.23    1.49
   1  10  13   -0.17    1.38
   1 -10  13    2.04    1.19
  -1  10 -13    2.73    1.49
  -1 -10 -13    4.01    1.47
  -1  10 -13    0.54    1.38
   1 -10  14    2.12    1.21
   1  10  14    0.44    1.60
   1 -10  14    1.20    1.23
  -1 -10 -14    4.04    1.51
  -1  10 -14    2.27    1.53
  -1  10 -14    3.50    1.46
   1 -10  15   15.69    2.43
   1 -10  15    4.51    2.05
   1  10  15   10.04    3.19
  -1  10 -15   15.22    2.80
  -1 -10 -15   13.22    2.94
  -1  10 -15   16.18    2.62
   1 -10  16    0.10    0.65
   1  10  16    0.07    1.22
   1 -10  16    0.33    0.62
  -1 -10 -16    2.83    0.92
  -1  10 -16   -0.11    0.87
  -1  10 -16   -0.08    0.75
   1  10  17    4.20    2.30
   1 -10  17   -0.14    1.57
   1 -10  17    9.47    1.54
  -1  10 -17   12.29    2.03
  -1 -10 -17    7.97    2.09
  -1  10 -17   10.68    1.92
   1 -10  18    0.55    1.05
   1 -10  18    3.19    0.90
   1  10  18    0.41    1.42
  -1 -10 -18    2.76    1.27
  -1  10 -18    1.40    1.15
  -1  10 -18    2.40    1.08
   1 -10  19    0.24    1.54
   1 -10  19    9.78    1.45
   1  10  19    3.39    2.02
  -1 -10 -19    9.63    1.59
  -1  10 -19   11.17    1.93
   1 -10  20    1.49    0.62
  -1  10 -20    0.30    0.75
   1  11 -18    3.79    1.18
   1 -11 -18    5.37    1.47
  -1 -11  18    3.31    1.18
   1 -11 -17   12.88    2.23
   1  11 -17    0.13    1.67
   1  11 -17   11.39    1.97
   1 -11 -17   14.99    1.82
  -1  11  17    0.06    2.17
  -1 -11  17   14.94    1.90
   1  11 -16   -0.21    1.21
   1  11 -16    8.59    1.25
   1 -11 -16    2.28    1.11
   1 -11 -16    0.66    1.35
  -1 -11  16    2.17    1.14
  -1  11  16    3.43    1.57
  -1  11  16    0.29    1.53
   1 -11 -15   23.94    3.47
   1  11 -15    0.94    3.00
   1  11 -15   24.56    3.21
   1 -11 -15   24.84    3.00
  -1  11  15   18.47    3.68
  -1 -11  15   28.19    2.91
  -1  11  15   -0.13    3.27
   1  11 -14   12.90    2.43
   1  11 -14   15.17    2.69
   1 -11 -14   15.13    2.64
   1  11 -14    2.91    2.33
   1 -11 -14   14.83    2.94
  -1 -11  14   15.43    2.45
  -1  11  14   12.65    3.34
  -1  11  14   11.37    3.27
   1  11 -13    0.01    1.44
   1  11 -13    6.28    1.71
   1  11 -13    3.51    1.56
   1 -11 -13    2.91    1.54
   1 -11 -13    5.86    1.87
  -1  11  13    3.15    2.05
  -1  11  13    5.12    1.98
  -1 -11  13    4.72    1.45
   1 -11 -12   30.52    4.34
   1 -11 -12   27.05    4.54
   1  11 -12   24.49    3.98
   1  11 -12   26.62    4.53
  -1 -11  12   24.44    3.72
  -1  11  12   21.01    5.07
  -1  11  12   20.55    4.79
   1  11 -11    4.05    1.54
   1  11 -11   -0.12    1.24
   1  11 -11    3.00    1.59
   1  11 -11    0.67    1.35
   1 -11 -11    2.07    1.63
   1 -11 -11    2.68    1.39
  -1  11  11    1.81    1.89
  -1 -11  11    4.07    1.27
  -1  11  11    5.82    1.80
   1 -11 -10    2.53    1.82
   1  11 -10    5.45    1.79
   1  11 -10    3.07    1.72
   1  11 -10    1.88    1.58
   1  11 -10    2.68    1.40
   1 -11 -10    2.31    1.60
  -1  11  10    3.92    2.25
  -1 -11  10    3.67    1.39
  -1  11  10    4.34    1.94
   1  11  -9    0.01    1.11
   1  11  -9    2.61    1.04
   1  11  -9    0.10    0.95
   1 -11  -9   -0.19    1.03
   1 -11  -9    0.01    0.93
  -1 -11   9    0.54    0.76
  -1  11   9    0.93    1.37
  -1  11   9    0.57    1.16
   1 -11  -8    6.72    1.87
   1  11  -8    5.31    2.09
   1  11  -8    3.91    1.24
   1  11  -8    5.12    2.24
   1  11  -8    1.10    1.95
   1 -11  -8    5.42    1.89
  -1  11   8    4.09    2.48
  -1  11   8    4.02    2.20
   1 -11  -7    2.99    1.46
   1 -11  -7    2.96    1.55
   1  11  -7    2.26    1.28
   1  11  -7    0.61    1.61
   1  11  -7    4.30    1.43
   1  11  -7    2.94    1.68
  -1  11   7    2.37    1.89
  -1  11   7    4.44    2.16
   1  11  -6    0.67    1.03
   1  11  -6    0.49    1.09
   1  11  -6    0.37    1.38
   1  11  -6    4.36    1.22
   1 -11  -6    0.74    1.13
   1 -11  -6    1.08    1.10
  -1 -11   6    0.64    0.72
  -1  11   6    0.47    1.58
  -1  11   6    0.48    1.38
   1  11  -5   21.16    3.80
   1  11  -5   20.22    4.19
   1  11  -5   13.13    3.39
   1  11  -5   18.92    3.12
   1 -11  -5   16.57    3.57
   1 -11  -5   20.86    3.28
  -1  11   5   23.48    4.11
  -1 -11   5   15.83    2.31
  -1  11   5   20.53    4.80
   1 -11  -4    5.51    2.13
   1  11  -4    6.12    2.30
   1  11  -4    5.02    2.13
   1  11  -4    6.91    1.90
   1  11  -4    7.41    2.74
   1 -11  -4    6.21    1.92
  -1 -11   4    4.84    1.43
  -1  11   4    6.47    2.68
  -1  11   4    7.60    2.84
   1  11  -3   62.24    7.09
   1  11  -3   64.53    7.83
   1  11  -3   66.13    8.22
   1  11  -3   67.32    8.29
   1 -11  -3   72.47    7.87
   1 -11  -3   78.25    7.41
  -1 -11   3   65.25    6.08
  -1  11   3   75.99    9.71
  -1  11   3   67.24    9.78
   1  11  -2    0.88    1.63
   1  11  -2    2.41    1.20
   1  11  -2    5.63    2.17
   1  11  -2    4.02    1.85
   1 -11  -2    8.49    1.81
   1 -11  -2    5.02    1.43
  -1  11   2    4.54    2.07
  -1 -11   2    4.11    1.27
  -1  11   2    2.98    2.36
   1 -11  -1   17.07    2.95
   1  11  -1   15.55    3.18
   1  11  -1   13.74    3.14
   1  11  -1   16.03    3.38
   1  11  -1   18.71    4.08
   1 -11  -1   15.32    2.65
  -1  11   1   21.79    4.15
  -1 -11   1   15.79    2.39
  -1  11   1   19.14    3.79
   1 -11   0   52.18    5.81
   1 -11   0   53.74    5.36
   1  11   0   53.94    6.69
   1  11   0   49.90    6.70
   1  11   0   50.67    6.01
   1  11   0   56.90    8.18
  -1  11   0   50.90    7.97
  -1 -11   0   49.99    5.17
  -1  11   0   54.49    7.33
   1 -11   1   13.32    2.10
   1  11   1   15.39    4.02
   1  11   1   12.98    2.73
   1  11   1   11.16    2.76
   1  11   1   13.27    3.02
   1 -11   1   12.56    2.68
  -1  11  -1   13.48    3.35
  -1  11  -1   13.89    2.68
  -1 -11  -1   12.98    2.25
  -1 -11  -1   13.52    2.20
   1 -11   2   23.57    2.86
   1  11   2   21.15    4.03
   1  11   2   23.76    3.62
   1  11   2   20.82    3.78
   1  11   2   25.23    5.12
   1 -11   2   21.92    3.53
  -1 -11  -2   22.96    3.59
  -1 -11  -2   24.89    3.13
  -1  11  -2   24.66    4.39
  -1  11  -2   23.95    4.45
   1  11   3   10.88    2.82
   1  11   3   10.26    2.91
   1  11   3   13.97    3.96
   1  11   3   13.04    2.79
   1 -11   3   13.84    2.43
  -1  11  -3   13.35    3.11
  -1 -11  -3   10.47    2.18
  -1 -11  -3   13.69    2.29
  -1  11  -3   12.52    3.17
   1 -11   4    4.21    1.55
   1  11   4    6.05    2.65
   1  11   4    2.54    1.80
   1  11   4    4.31    1.83
   1  11   4    6.49    2.04
  -1  11  -4    6.27    2.03
  -1 -11  -4    4.62    1.61
  -1 -11  -4    6.61    1.68
  -1  11  -4    3.92    2.16
   1 -11   5   48.77    5.38
   1  11   5   49.27    5.95
   1  11   5   40.29    6.14
   1  11   5   42.81    7.56
   1  11   5   43.96    5.80
  -1  11  -5   48.68    6.48
  -1 -11  -5   44.31    5.12
  -1  11  -5   43.80    6.31
  -1  11  -5   42.67    6.14
   1  11   6    5.77    1.79
   1  11   6    3.96    2.17
   1  11   6    0.87    1.68
   1  11   6    2.48    1.74
   1 -11   6    4.48    1.34
  -1  11  -6    4.39    1.78
  -1 -11  -6    2.71    1.45
  -1  11  -6    1.90    1.78
  -1  11  -6    5.10    1.90
   1  11   7    8.60    2.88
   1  11   7   13.52    3.10
   1  11   7   12.00    3.81
   1 -11   7   13.47    2.37
  -1 -11  -7   12.47    2.58
  -1  11  -7   15.40    3.34
  -1  11  -7   11.27    3.04
  -1  11  -7   14.10    3.17
   1 -11   8    0.35    0.87
   1  11   8    0.14    1.16
   1  11   8   -0.41    1.51
   1  11   8   -0.36    1.25
  -1  11  -8    3.18    1.23
  -1 -11  -8   -0.08    1.01
  -1  11  -8    3.14    1.20
  -1  11  -8    2.74    1.25
   1  11   9   -0.03    2.69
   1  11   9   14.72    3.68
   1  11   9   10.02    2.95
   1 -11   9   14.84    2.31
  -1  11  -9   18.79    3.08
  -1 -11  -9   13.92    2.69
  -1  11  -9   14.21    3.04
  -1  11  -9   14.61    3.08
   1  11  10    0.17    1.20
   1  11  10    0.22    1.34
   1  11  10    0.16    1.17
   1 -11  10    1.85    0.89
  -1  11 -10    1.47    1.14
  -1 -11 -10    0.70    1.01
  -1  11 -10    1.21    1.13
   1 -11  11    0.01    0.73
   1 -11  11    0.25    0.82
   1  11  11    4.04    1.06
   1  11  11    0.11    1.07
   1  11  11    0.43    1.04
  -1 -11 -11   -0.13    0.91
  -1  11 -11    0.73    0.99
  -1  11 -11    0.20    0.93
   1  11  12   -0.50    1.32
   1  11  12    0.34    1.30
   1 -11  12    0.01    0.90
   1 -11  12    2.92    0.97
  -1  11 -12    4.17    1.21
  -1 -11 -12    0.53    1.22
  -1  11 -12    2.33    1.21
   1 -11  13    0.25    0.69
   1  11  13    0.21    0.96
   1  11  13    0.12    1.03
   1 -11  13   -0.02    0.68
  -1  11 -13    0.47    0.89
  -1 -11 -13    2.70    0.95
  -1  11 -13    0.61    0.89
   1 -11  14    0.06    1.06
   1  11  14    0.48    1.64
   1 -11  14    4.82    1.15
  -1  11 -14    2.68    1.35
  -1 -11 -14    3.57    1.43
  -1  11 -14    4.89    1.40
   1 -11  15    5.91    1.17
   1  11  15    0.33    1.73
   1 -11  15   -0.08    1.20
  -1 -11 -15    6.46    1.52
  -1  11 -15    5.00    1.49
  -1  11 -15    5.37    1.45
   1  11  16    0.25    1.35
   1 -11  16    0.26    1.03
   1 -11  16    2.64    0.94
  -1  11 -16    3.00    1.13
  -1 -11 -16    4.91    1.18
  -1  11 -16    4.45    1.21
   1 -11  17    4.94    1.19
  -1  11 -17    3.17    1.25
  -1 -11 -17    2.12    1.19
  -1 -11 -18    6.67    1.54
  -1  11 -18    3.77    1.31
   1 -12 -15    1.96    0.95
   1  12 -15    2.31    0.94
   1 -12 -15    2.49    0.92
  -1 -12  15    0.04    0.82
   1  12 -14    4.01    1.05
   1 -12 -14    2.32    1.02
   1 -12 -14    2.68    1.03
  -1 -12  14    0.41    0.91
  -1  12  14    0.06    1.20
  -1  12  14    0.45    1.29
   1 -12 -13   32.42    3.57
   1  12 -13   27.20    3.65
   1  12 -13   23.80    3.37
   1 -12 -13   26.78    3.59
  -1  12  13   24.43    3.93
  -1 -12  13   21.65    2.97
  -1  12  13   24.96    4.57
   1  12 -12    0.37    1.04
   1  12 -12    2.16    1.09
   1 -12 -12    1.34    1.04
   1 -12 -12    1.16    1.06
  -1 -12  12    2.61    0.88
  -1  12  12    0.56    1.26
  -1  12  12    0.42    1.44
   1 -12 -11    3.15    1.14
   1  12 -11    0.78    1.09
   1  12 -11    1.39    1.19
   1 -12 -11    1.24    1.07
  -1 -12  11    1.58    0.94
  -1  12  11    0.78    1.51
  -1  12  11    0.89    1.32
   1 -12 -10    0.14    0.88
   1  12 -10    0.42    1.00
   1  12 -10    0.20    0.95
   1 -12 -10    0.35    0.90
  -1  12  10   -0.06    1.23
  -1 -12  10    2.10    0.77
  -1  12  10    0.81    1.10
   1 -12  -9    3.85    1.67
   1  12  -9    5.23    1.81
   1  12  -9    3.70    1.79
   1 -12  -9    4.52    1.63
  -1  12   9    3.94    1.84
  -1 -12   9    3.63    1.33
  -1  12   9    2.35    2.20
   1  12  -8    0.44    1.06
   1  12  -8    0.32    0.71
   1 -12  -8    0.51    0.65
   1 -12  -8    2.44    0.84
  -1  12   8    0.07    1.02
  -1  12   8    0.44    1.26
  -1 -12   8   -0.13    0.77
   1 -12  -7    7.22    1.43
   1  12  -7    4.80    2.33
   1  12  -7    7.64    2.39
   1 -12  -7    6.48    1.96
  -1 -12   7    7.43    1.63
  -1  12   7    5.03    2.85
  -1  12   7    5.89    2.48
   1  12  -6    9.70    3.31
   1  12  -6   14.51    3.02
   1 -12  -6   14.37    2.62
   1 -12  -6   11.36    2.62
  -1  12   6   10.25    3.54
  -1  12   6   11.44    3.29
   1  12  -5   12.26    2.91
   1  12  -5   11.90    3.12
   1  12  -5    9.83    2.57
   1 -12  -5   15.38    2.60
   1 -12  -5   11.22    2.57
  -1  12   5    9.80    3.62
  -1  12   5   11.54    2.99
   1 -12  -4    5.04    1.70
   1  12  -4    5.36    1.54
   1  12  -4    5.62    2.35
   1  12  -4    4.85    1.83
   1 -12  -4    6.09    1.71
  -1  12   4    6.17    2.34
  -1  12   4    5.69    2.50
   1  12  -3    5.49    1.95
   1  12  -3    5.37    2.41
   1  12  -3    5.21    1.84
   1 -12  -3    3.71    1.63
   1 -12  -3    5.02    1.47
  -1  12   3    5.44    2.26
  -1  12   3    3.33    2.35
   1 -12  -2   18.82    2.67
   1  12  -2   18.61    3.72
   1  12  -2   18.37    4.13
   1  12  -2   19.48    3.19
   1 -12  -2   16.25    2.96
  -1  12   2   18.25    4.35
  -1  12   2   16.07    3.92
   1 -12  -1   -0.25    0.43
   1  12  -1    0.82    0.83
   1  12  -1    0.42    0.65
   1  12  -1    0.03    0.58
   1  12  -1   -0.09    0.54
   1 -12  -1    0.04    0.50
  -1  12   1    0.14    0.66
  -1  12   1   -0.21    0.76
   1 -12   0   32.73    4.09
   1  12   0   33.22    5.68
   1  12   0   27.91    4.60
   1  12   0   30.18    4.31
   1  12   0   31.22    4.72
   1 -12   0   27.67    3.36
  -1  12   0   30.71    3.96
  -1  12   0   31.80    4.27
   1 -12   1    1.85    1.00
   1  12   1    3.89    1.32
   1  12   1    0.04    1.51
   1  12   1    1.86    1.66
   1  12   1    0.56    1.18
   1 -12   1    1.61    0.89
  -1  12  -1    0.82    1.37
  -1  12  -1    0.85    1.44
   1  12   2    0.50    1.51
   1  12   2    3.37    1.63
   1  12   2    3.99    2.00
   1  12   2    2.46    1.46
   1 -12   2    2.06    1.19
  -1  12  -2    4.52    1.70
  -1  12  -2    3.71    1.69
   1 -12   3    5.85    1.66
   1  12   3    2.62    1.96
   1  12   3    5.38    2.11
   1  12   3    3.84    2.63
  -1  12  -3    7.30    2.19
  -1 -12  -3    5.69    1.62
  -1  12  -3    6.42    1.56
   1  12   4    9.56    3.04
   1  12   4   12.76    3.83
   1  12   4   13.83    3.10
   1 -12   4   15.01    2.51
  -1 -12  -4   15.69    2.47
  -1  12  -4   13.91    3.24
  -1  12  -4   15.47    3.20
   1 -12   5   10.16    2.05
   1  12   5   11.58    2.77
   1  12   5   11.29    3.32
   1  12   5    6.96    2.62
  -1 -12  -5   11.80    2.21
  -1  12  -5   11.30    2.77
  -1  12  -5   11.99    2.86
   1  12   6   20.02    4.22
   1  12   6    0.34    3.19
   1  12   6   14.35    3.28
   1 -12   6   23.02    2.62
  -1 -12  -6   21.80    2.83
  -1  12  -6   19.44    3.67
  -1  12  -6   22.61    3.62
   1 -12   7    0.38    0.71
   1  12   7    0.26    1.20
   1  12   7    0.05    0.97
   1  12   7    0.05    0.99
  -1 -12  -7    2.41    0.82
  -1  12  -7    0.30    1.02
  -1  12  -7    0.48    1.00
   1  12   8    6.24    2.23
   1  12   8    3.66    1.94
   1 -12   8    7.15    1.51
   1  12   8    0.16    1.92
  -1 -12  -8    7.00    1.60
  -1  12  -8    8.38    2.07
  -1  12  -8    8.34    2.02
  -1  12  -8    0.83    1.78
   1  12   9    7.94    2.47
   1  12   9   -0.51    2.30
   1  12   9   14.45    2.75
   1 -12   9   13.55    1.96
  -1  12  -9   -0.75    2.07
  -1 -12  -9   14.68    2.11
  -1  12  -9   13.82    2.46
   1  12  10    2.60    2.45
   1  12  10    5.90    2.43
   1 -12  10   14.16    2.03
  -1 -12 -10   15.39    2.18
  -1  12 -10    2.33    2.12
  -1  12 -10   14.10    2.41
   1  12  11    2.53    2.30
   1 -12  11   10.31    1.64
  -1  12 -11    0.43    1.82
  -1 -12 -11    9.86    1.92
  -1  12 -11   13.34    2.12
   1 -12  12   19.48    2.06
   1  12  12    0.31    2.53
  -1 -12 -12   18.25    2.36
  -1  12 -12   18.67    2.48
  -1  12 -12    0.03    2.20
   1 -12  13    0.14    0.45
  -1  12 -13   -0.07    0.51
  -1  12 -13    0.01    0.53
  -1 -12 -13    0.31    0.52
   1 -12  14    9.04    1.38
  -1 -12 -14   11.64    1.70
  -1  12 -14    0.09    1.57
  -1  12 -14    9.00    1.65
  -1 -12 -15    0.38    0.58
   1  13 -11    6.61    1.57
   1 -13 -11    5.85    1.40
   1 -13 -11    6.17    1.42
  -1  13  11    3.71    1.72
  -1  13  11    5.43    1.92
   1 -13 -10    0.59    0.74
   1  13 -10    0.81    0.78
   1  13 -10    0.25    0.78
   1 -13 -10    2.09    0.75
  -1  13  10   -0.02    1.05
  -1  13  10    0.33    0.95
   1  13  -9    0.12    0.83
   1  13  -9    0.26    0.86
   1 -13  -9    0.16    0.70
   1 -13  -9    2.05    0.73
  -1  13   9    2.59    0.93
  -1 -13   9   -0.28    0.64
  -1  13   9    0.56    1.12
   1  13  -8    2.05    0.82
   1  13  -8    0.28    0.83
   1 -13  -8    0.03    0.66
   1 -13  -8    0.56    0.83
  -1  13   8    0.41    0.88
  -1 -13   8    0.01    0.79
  -1  13   8    0.28    1.01
   1  13  -7    8.12    2.02
   1  13  -7    9.39    2.45
   1 -13  -7    7.99    1.61
   1 -13  -7    8.92    1.67
  -1  13   7   10.58    2.61
  -1 -13   7    1.66    1.48
  -1  13   7    8.26    2.18
   1  13  -6    0.54    1.16
   1  13  -6    3.35    1.14
   1 -13  -6    2.17    0.92
   1 -13  -6    2.33    0.91
  -1  13   6    0.92    1.37
  -1 -13   6    0.05    0.86
  -1  13   6   -0.03    1.22
   1 -13  -5    3.53    1.22
   1  13  -5    4.17    1.60
   1  13  -5    3.54    1.68
   1 -13  -5    5.92    1.33
  -1  13   5    3.17    1.74
  -1 -13   5    0.21    1.15
  -1  13   5    3.41    1.66
   1  13  -4    0.38    1.45
   1  13  -4    1.94    1.57
   1 -13  -4    4.61    1.16
   1 -13  -4    0.58    1.03
  -1  13   4    1.56    1.61
  -1 -13   4    1.68    1.06
  -1  13   4    7.65    1.57
   1 -13  -3    0.11    0.54
   1  13  -3    0.46    0.84
   1  13  -3    0.16    0.82
   1 -13  -3    0.14    0.56
  -1  13   3    0.53    0.79
   1  13  -2    0.54    1.21
   1  13  -2    0.66    1.40
   1 -13  -2    2.34    0.92
   1 -13  -2    0.34    0.92
  -1  13   2    3.54    1.36
  -1  13   2    3.20    1.30
   1  13  -1    0.41    1.65
   1  13  -1    2.24    1.33
   1 -13  -1    1.63    0.95
  -1  13   1    3.86    1.31
  -1  13   1    0.88    1.47
   1  13   0    1.82    1.68
   1  13   0    1.55    1.41
   1 -13   0    2.40    1.05
  -1  13   0    2.61    1.59
  -1  13   0    3.35    1.47
   1  13   1    4.63    2.04
   1  13   1    3.84    1.66
   1 -13   1    3.05    1.24
  -1  13  -1    3.56    1.75
  -1  13  -1    3.93    1.68
   1  13   2    3.37    1.63
   1  13   2   -0.04    1.27
   1 -13   2    1.73    0.90
  -1  13  -2    3.25    1.39
  -1  13  -2    1.37    1.31
   1  13   3   -0.05    1.16
   1  13   3   -0.48    0.92
   1 -13   3    1.71    0.67
  -1  13  -3   -0.34    0.98
  -1  13  -3    1.09    1.09
   1 -13   4    1.88    0.65
   1  13   4   -0.14    1.23
   1  13   4   -0.15    0.92
  -1  13  -4   -0.17    0.96
  -1  13  -4    0.43    1.03
   1  13   5    0.04    1.08
   1  13   5    3.80    1.30
   1 -13   5    1.72    0.70
  -1  13  -5    0.31    1.09
  -1 -13  -5    0.17    0.80
  -1  13  -5    0.81    1.02
   1  13   6   -0.07    1.23
   1  13   6    1.22    1.59
   1 -13   6    2.74    0.88
  -1  13  -6    3.00    1.25
  -1  13  -6    0.54    1.28
  -1 -13  -6    2.24    0.95
   1  13   7   -0.28    1.30
   1  13   7    4.42    1.24
   1 -13   7    0.32    0.80
  -1  13  -7    0.07    0.96
  -1 -13  -7    1.60    0.78
  -1  13  -7    0.45    0.96
   1 -13   8   -0.18    0.84
   1  13   8    2.65    1.31
  -1 -13  -8    2.02    0.86
  -1  13  -8    2.45    1.04
   1  13   9    3.39    1.84
   1 -13   9    4.67    1.21
  -1  13  -9    5.13    1.54
  -1 -13  -9    4.78    1.26
   1 -13  10   -0.06    0.37
  -1 -13 -10   -0.08    0.42
  -1  13 -10    0.04    0.48
  -1  14   5    2.03    1.23
   1  14  -4   11.71    2.42
  -1  14   4   11.48    2.36
  -1  14   4   12.07    2.60
   1  14  -3   -0.01    0.51
  -1  14   3    0.04    0.61
  -1  14   3    0.02    0.56
   1  14  -2   14.08    2.70
  -1  14   2   12.53    2.69
  -1  14   2   14.78    2.89
   1  14  -1    2.82    1.53
  -1  14   1    3.23    1.48
  -1  14   1    3.61    1.58
   1  14   0    0.30    1.73
  -1  14   0    4.98    1.51
  -1  14   0    3.99    1.42
   1  14   1    0.20    0.61
  -1  14  -1   -0.20    0.50
  -1  14  -1    0.00    0.52
   1  14   2    5.72    2.08
  -1  14  -2    6.05    1.71
   1  14   3    0.86    1.47
  -1  14  -3    2.85    1.17
   1  14   4    3.13    1.55
  -1  14  -4    2.77    1.28
   2   0 -28   22.12    3.41
   2   0 -27    0.05    1.11
   2   0 -27    2.21    1.10
   2   0 -26    1.28    1.19
  -2   0  26    1.13    1.02
   2   0 -25    0.33    1.00
  -2   0  25    0.40    0.98
   2   0 -24    0.26    1.00
  -2   0  24    0.56    1.04
   2   0 -23    0.10    0.97
   2   0 -23    0.09    1.20
  -2   0  23    4.00    1.41
   2   0 -22   61.06    6.01
   2   0 -22   61.63    6.59
   2   0 -22   63.67    8.00
  -2   0  22   55.44    6.54
   2   0 -21    2.09    0.94
   2   0 -21   -0.01    1.48
   2   0 -21    0.00    1.45
   2   0 -21    2.89    1.29
  -2   0  21   -0.01    1.42
  -2   0  21    2.95    1.45
   2   0 -20    6.30    2.33
   2   0 -20    6.68    1.90
   2   0 -20    4.38    1.71
   2   0 -20    8.21    1.80
  -2   0  20    6.09    2.10
  -2   0  20    6.02    2.46
   2   0 -19    0.29    0.65
   2   0 -19   -0.15    0.47
   2   0 -19   -0.02    0.43
   2   0 -19   -0.24    0.63
  -2   0  19   -0.03    0.61
  -2   0  19    0.14    0.54
   2   0 -18  138.03   10.90
   2   0 -18  121.65   13.09
   2   0 -18  123.91   13.37
   2   0 -18  128.16   11.44
  -2   0  18  122.63   13.05
  -2   0  18  129.06   10.52
   2   0 -17    0.00    1.14
   2   0 -17    0.70    1.12
   2   0 -17    0.05    0.85
   2   0 -17    2.64    0.80
  -2   0  17   -0.10    0.97
  -2   0  17    0.14    0.87
   2   0 -16 1570.60  121.48
   2   0 -16 1533.92  109.91
   2   0 -16 1594.91  105.82
   2   0 -16 1544.97  115.42
  -2   0  16 1487.19  113.29
  -2   0  16 1535.79  101.04
   2   0 -15    0.26    0.45
   2   0 -15    0.34    0.62
   2   0 -15   -0.01    0.63
   2   0 -15    0.12    0.50
  -2   0  15   -0.30    0.48
  -2   0  15   -0.04    0.55
   2   0 -14  582.26   37.81
   2   0 -14  559.52   41.38
   2   0 -14  517.28   39.20
   2   0 -14  540.01   38.06
  -2   0  14  546.71   33.50
  -2   0  14  561.45   40.54
   2   0 -13    0.11    0.82
   2   0 -13    2.08    0.64
   2   0 -13   -0.08    0.68
   2   0 -13    1.89    0.76
   2   0 -13   -0.05    0.81
  -2   0  13    0.05    0.58
  -2   0  13    0.19    0.79
   2   0 -12  382.00   24.99
   2   0 -12  401.35   25.07
   2   0 -12  377.74   25.66
   2   0 -12  378.40   26.09
   2   0 -12  378.97   26.53
  -2   0  12  378.51   25.59
   2   0 -11   -0.01    0.32
   2   0 -11   -0.09    0.52
   2   0 -11    0.11    0.38
   2   0 -11    0.11    0.36
   2   0 -11    0.02    0.39
  -2   0  11   -0.45    0.39
   2   0 -10 4052.68  235.51
  -2   0  10 4611.38  213.73
   2   0  -9   -0.12    0.14
   2   0  -9    0.27    0.33
  -2   0   9    0.57    0.32
   2   0  -8  233.69   13.05
   2   0  -8  233.14    7.50
  -2   0   8  223.14   10.73
   2   0  -7    2.05    0.59
   2   0  -7    0.82    0.21
  -2   0   7    0.21    0.44
   2   0  -6 1898.52   58.84
   2   0  -6 1919.89   82.48
  -2   0   6 1981.00   71.77
   2   0  -5   -0.15    0.40
   2   0  -5    0.63    0.19
  -2   0   5    0.20    0.24
   2   0  -4 3102.82  100.85
   2   0  -4 3439.52  128.92
  -2   0   4 3158.09  103.28
   2   0  -3   -0.06    0.33
   2   0  -3    1.10    0.52
  -2   0   3    1.56    0.27
   2   0  -2 3332.48   93.58
   2   0  -2 2990.57  105.45
   2   0  -2 3427.34  118.74
   2   0  -1    2.86    0.53
   2   0  -1    2.92    0.37
   2   0  -1    0.12    0.62
   2   0   0  376.79   11.04
   2   0   0  376.24    7.13
   2   0   0  344.09   13.54
   2   0   0  306.52   11.86
   2   0   1    0.26    0.32
   2   0   1    0.34    0.09
   2   0   2 1973.29   63.53
   2   0   2 1594.57   71.24
   2   0   2 1960.05   70.14
   2   0   2 2069.13   48.51
   2   0   3    0.30    0.19
   2   0   3    0.16    0.16
   2   0   3    0.21    0.29
   2   0   4 1979.30   64.04
   2   0   4 1962.36   73.87
   2   0   4 1846.40   69.31
   2   0   5    1.72    0.37
   2   0   5    0.94    0.43
   2   0   5    0.58    0.31
   2   0   6  173.93    7.86
   2   0   6  225.29   10.32
   2   0   7   -0.03    0.39
   2   0   7    1.45    0.37
   2   0   8 1557.01   75.17
   2   0   8 1668.77   73.80
   2   0   9    0.24    0.34
   2   0   9   -0.05    0.34
  -2   0  -9    0.02    0.39
   2   0  10    4.27    0.86
   2   0  10    5.52    1.10
   2   0  10    4.72    1.24
  -2   0 -10    5.03    1.14
   2   0  11   -0.08    0.30
   2   0  11   -0.10    0.31
   2   0  11    0.01    0.45
   2   0  11    0.13    0.40
  -2   0 -11   -0.25    0.41
   2   0  12  322.94   22.77
   2   0  12  314.62   18.58
   2   0  12  341.12   18.94
   2   0  12  349.08   20.29
   2   0  12  346.04   23.26
  -2   0 -12  363.76   22.40
   2   0  13    3.19    0.95
   2   0  13    0.04    0.67
   2   0  13    3.27    0.93
   2   0  13    0.18    0.64
  -2   0 -13    4.80    0.85
  -2   0 -13   -0.12    0.50
   2   0  14  437.28   32.92
   2   0  14  422.11   25.73
   2   0  14  395.52   32.06
   2   0  14  459.54   30.27
   2   0  14  428.09   27.35
  -2   0 -14  443.43   22.93
  -2   0 -14  441.21   29.34
   2   0  15   -0.08    0.52
   2   0  15    2.78    1.05
   2   0  15   -0.07    0.91
   2   0  15    1.38    0.53
   2   0  15    0.44    0.67
  -2   0 -15   -0.23    0.77
  -2   0 -15    0.58    0.51
   2   0  16  161.44   12.62
   2   0  16  113.99   12.24
   2   0  16  143.83   11.53
   2   0  16  145.13   10.34
   2   0  16  157.29   14.55
  -2   0 -16  151.66   12.32
  -2   0 -16  163.98   10.27
   2   0  17    0.34    0.61
   2   0  17   -0.66    0.58
   2   0  17   -0.02    0.51
   2   0  17    0.32    0.75
  -2   0 -17   -0.04    0.53
   2   0  18    4.19    1.87
   2   0  18    2.46    1.43
   2   0  18    2.22    1.27
   2   0  18    3.54    1.60
  -2   0 -18    1.16    1.45
   2   0  19    0.27    1.29
   2   0  19    0.04    0.82
   2   0  19    0.17    1.11
   2   0  19   -0.25    1.03
  -2   0 -19    2.87    1.02
   2   0  20    0.59    1.53
   2   0  20    0.58    1.56
   2   0  20    0.29    1.07
   2   0  20    2.98    1.27
  -2   0 -20    0.93    1.24
   2   0  21    0.67    0.94
   2   0  21    0.07    0.72
   2   0  21   -0.14    0.83
   2   0  22  151.49   15.65
   2   0  22  156.25   16.48
   2   0  22  141.83   12.42
  -2   0 -22  147.33   13.33
   2   0  23   -0.07    0.83
   2   0  23    0.07    0.71
   2   0  23   -0.06    0.62
  -2   0 -23   -0.07    0.57
   2   0  24   68.59    9.08
   2   0  24   61.03    7.55
   2   0  24   71.74    8.90
  -2   0 -24   64.00    7.01
   2   0  25    0.03    1.06
   2   0  25    2.66    1.05
   2   0  25    0.42    1.19
   2   0  25    0.12    0.93
  -2   0 -25    0.00    0.83
   2   0  26   17.33    3.00
   2   0  26    0.07    3.23
   2   0  26   23.61    3.78
   2   0  26   25.16    3.51
  -2   0 -26   17.60    2.97
   2   0  27    0.66    0.86
   2   0  27    0.36    0.89
   2   0  27    0.14    0.92
   2   1 -28    0.74    0.88
   2  -1 -27    0.01    0.95
   2   1 -27    2.56    0.95
   2   1 -27    0.27    1.03
   2  -1 -27   -0.10    0.94
   2   1 -26    0.43    0.85
   2  -1 -26    0.47    1.10
   2  -1 -26    0.20    1.29
  -2  -1  26    2.85    1.16
   2  -1 -25    8.80    2.54
   2   1 -25   10.37    2.69
  -2  -1  25    7.80    2.78
   2  -1 -24   13.95    3.44
   2   1 -24   14.30    3.22
   2   1 -24   12.72    2.67
  -2   1  24   12.79    3.35
  -2  -1  24    9.71    3.49
   2   1 -23    3.61    1.92
   2   1 -23    4.58    1.70
   2  -1 -23    1.83    1.91
  -2   1  23    4.80    2.15
  -2  -1  23    4.09    1.99
   2   1 -22   16.54    2.91
   2  -1 -22   16.42    3.97
   2   1 -22   13.11    2.40
   2   1 -22   15.22    3.61
  -2   1  22   14.83    2.87
  -2   1  22   14.55    3.78
  -2  -1  22   12.78    3.41
   2  -1 -21    1.12    1.22
   2   1 -21    3.53    1.23
   2  -1 -21    0.86    1.69
   2   1 -21    1.18    1.66
   2   1 -21    3.73    1.69
   2  -1 -21    5.03    1.23
   2  -1 -21    0.59    1.32
   2   1 -21    2.98    1.33
  -2   1  21    0.87    1.86
  -2   1  21    5.11    1.92
  -2  -1  21    2.85    1.48
  -2  -1  21    0.73    1.52
   2  -1 -20    2.47    0.82
   2  -1 -20   -0.13    0.96
   2  -1 -20   -0.01    0.73
   2  -1 -20   -0.02    1.07
   2   1 -20    0.27    1.02
   2   1 -20    0.31    1.00
   2   1 -20    0.20    0.88
   2   1 -20    0.25    0.74
  -2   1  20   -0.09    1.05
  -2  -1  20    0.26    1.00
  -2  -1  20    0.13    0.74
  -2   1  20    2.97    1.07
  -2  -1  20   -0.35    0.87
   2   1 -19   33.03    5.05
   2  -1 -19   29.86    3.78
   2  -1 -19   33.01    4.23
   2   1 -19   32.00    4.33
   2   1 -19   30.80    3.95
   2  -1 -19   30.80    5.09
   2   1 -19   30.89    4.01
   2  -1 -19   32.31    4.21
  -2   1  19   28.99    4.26
  -2  -1  19   28.55    4.50
  -2   1  19   31.32    4.83
  -2  -1  19   33.12    4.64
  -2  -1  19   31.96    4.00
   2  -1 -18   29.51    4.75
   2  -1 -18   34.17    4.07
   2  -1 -18   33.44    4.24
   2  -1 -18   31.09    5.24
   2   1 -18   30.81    3.96
   2   1 -18   31.24    4.73
   2   1 -18   29.31    3.96
   2   1 -18   33.12    4.42
  -2   1  18   29.86    4.56
  -2   1  18   30.07    5.03
  -2  -1  18   29.08    4.67
  -2  -1  18   28.45    3.50
  -2  -1  18   31.01    4.06
   2   1 -17    3.38    1.35
   2  -1 -17    2.00    1.24
   2  -1 -17    2.52    1.25
   2   1 -17    3.75    1.23
   2   1 -17    5.70    1.58
   2  -1 -17    2.52    1.47
   2  -1 -17    2.75    1.66
   2   1 -17    0.99    0.89
   2   1 -17    1.18    1.49
  -2   1  17    2.64    1.26
  -2   1  17    3.12    1.50
  -2  -1  17    2.51    1.02
  -2  -1  17    2.79    1.30
   2   1 -16   68.22    6.34
   2  -1 -16   59.09    6.16
   2   1 -16   59.35    6.26
   2   1 -16   52.95    7.43
   2  -1 -16   72.87    6.44
   2  -1 -16   61.17    6.31
   2  -1 -16   64.23    7.78
   2   1 -16   70.78    7.05
   2   1 -16   57.92    7.22
  -2   1  16   63.73    6.30
  -2   1  16   66.52    7.69
  -2  -1  16   61.06    6.45
  -2  -1  16   66.48    5.39
  -2  -1  16   62.20    5.94
   2  -1 -15   70.56    7.58
   2  -1 -15   73.52    6.50
   2  -1 -15   66.97    6.50
   2  -1 -15   69.04    8.05
   2   1 -15   74.19    7.99
   2   1 -15   70.65    5.74
   2   1 -15   77.09    7.17
   2   1 -15   66.99    6.89
   2   1 -15   72.82    7.53
  -2   1  15   72.52    7.81
  -2   1  15   70.67    6.55
  -2  -1  15   74.34    5.74
  -2  -1  15   72.89    6.80
  -2  -1  15   73.04    6.39
   2   1 -14   29.30    3.17
   2   1 -14   28.23    4.25
   2   1 -14   30.04    3.27
   2   1 -14   28.14    2.92
   2  -1 -14   31.53    3.61
   2  -1 -14   28.56    4.05
   2  -1 -14   26.03    3.24
   2  -1 -14   33.16    3.49
   2   1 -14   31.78    3.83
  -2   1  14   30.35    4.17
  -2   1  14   30.96    3.32
  -2  -1  14   30.86    2.86
  -2  -1  14   30.77    3.54
  -2  -1  14   26.55    3.22
   2  -1 -13    1.61    0.67
   2  -1 -13    0.58    0.74
   2   1 -13    4.60    1.08
   2  -1 -13    0.53    1.07
   2   1 -13    0.78    0.68
   2   1 -13    1.22    0.70
   2   1 -13    1.97    1.03
   2  -1 -13    2.20    0.88
   2   1 -13    2.01    0.91
   2   1 -13    3.82    1.26
  -2  -1  13    4.36    0.74
  -2   1  13    1.53    0.86
  -2  -1  13    0.73    0.87
  -2  -1  13    2.66    0.86
  -2   1  13    0.94    1.06
   2  -1 -12  253.09   17.83
   2   1 -12  262.86   17.51
   2   1 -12  252.44   16.43
   2   1 -12  243.08   17.74
   2   1 -12  260.43   18.73
   2  -1 -12  266.29   17.21
   2  -1 -12  239.64   17.17
   2  -1 -12  234.41   17.38
   2   1 -12  268.93   18.50
   2   1 -12  258.55   18.55
  -2   1  12  272.85   15.66
  -2   1  12  262.64   18.86
  -2  -1  12  267.04   15.19
   2  -1 -11  115.97    9.41
   2  -1 -11  108.33    7.94
   2  -1 -11  108.74    8.74
   2   1 -11  120.52    8.45
   2   1 -11  109.40    8.83
   2   1 -11  111.41    8.65
   2   1 -11  119.95    8.80
   2  -1 -11  117.83    5.07
   2  -1 -11  119.01    7.77
   2   1 -11  117.24    8.11
   2   1 -11  119.45    9.27
  -2   1  11  120.01    7.06
  -2  -1  11  120.73    7.59
   2  -1 -10  439.29   17.29
   2  -1 -10  445.03   26.84
   2   1 -10  448.69   27.54
  -2   1  10  448.81   22.32
  -2  -1  10  468.16   23.93
   2  -1  -9 2277.36   83.36
   2  -1  -9 2322.08  119.38
   2   1  -9 2393.48  123.57
  -2   1   9 2304.10  102.02
  -2  -1   9 2344.68  104.12
   2  -1  -8   29.65    2.74
   2  -1  -8   32.09    1.73
   2   1  -8   31.69    3.09
  -2  -1   8   31.05    2.22
  -2   1   8   34.04    2.34
   2  -1  -7 1919.58   89.73
   2   1  -7 2107.55   95.80
   2   1  -7 1970.03   45.40
   2  -1  -7 2119.80   75.44
  -2   1   7 2085.79   82.97
  -2  -1   7 1973.26   77.79
   2  -1  -6  609.40   29.41
   2  -1  -6  706.09   25.63
   2   1  -6  642.08   29.73
   2   1  -6  736.68   18.15
  -2   1   6  645.19   24.99
  -2  -1   6  666.48   26.44
   2   1  -5 1499.38   61.83
   2   1  -5 1520.67   41.18
   2  -1  -5 1585.71   55.66
   2  -1  -5 1399.11   61.06
  -2   1   5 1538.96   51.65
  -2  -1   5 1559.14   54.64
   2  -1  -4    0.54    0.35
   2   1  -4    0.80    0.25
   2  -1  -4    0.88    0.37
   2   1  -4    1.06    0.44
  -2   1   4    1.10    0.22
   2   1  -3 2429.50   84.96
   2   1  -3 2102.73   67.42
   2   1  -3 2397.43   89.27
   2  -1  -3 2796.97   95.20
   2  -1  -3 2334.54   81.39
  -2   1   3 2354.95   64.77
   2  -1  -2  473.21   16.25
   2   1  -2  518.83   15.77
   2   1  -2  470.99   18.23
   2   1  -2  438.63   15.91
   2  -1  -2  347.62   16.86
  -2   1   2  422.55   10.23
   2  -1  -1  485.44   20.44
   2   1  -1  541.15   17.92
   2   1  -1  537.74   19.97
   2   1  -1  519.25   20.41
   2  -1  -1  505.11   18.28
   2  -1   0  272.50   12.02
   2  -1   0  283.82   10.62
   2   1   0  268.37   10.27
   2   1   0  274.14    9.54
   2   1   0  271.38   10.74
   2  -1   1  534.93   22.38
   2  -1   1  542.34   11.06
   2   1   1  623.60   22.48
   2   1   1  589.65   20.49
   2  -1   1  554.73   20.11
   2   1   1  585.59   21.88
   2  -1   2  523.98   20.03
   2  -1   2  454.40   14.40
   2   1   2  544.37   20.76
   2  -1   2  484.20   12.07
   2  -1   3  430.22   13.98
   2  -1   3  442.39   12.79
   2  -1   3  449.68   17.40
   2   1   3  488.57   19.64
   2   1   3  388.28   17.32
   2  -1   4  657.34   25.45
   2  -1   4  621.83   21.28
   2   1   4  696.24   28.54
   2   1   4  700.62   28.39
   2  -1   4  675.28   21.69
   2  -1   5 1903.64   73.93
   2  -1   5 1886.23   66.15
   2   1   5 1934.05   80.02
   2   1   5 1993.56   82.54
   2  -1   5 1797.15   60.54
   2   1   6   84.47    4.77
   2  -1   6   80.64    4.35
   2  -1   6   72.07    3.61
   2  -1   6   76.41    3.55
   2   1   6   83.14    5.04
   2  -1   7   98.81    5.13
   2  -1   7   98.89    4.95
   2  -1   7   78.42    3.86
   2   1   7   92.95    5.45
   2   1   7   98.59    5.66
   2  -1   8   53.22    3.12
   2  -1   8   44.72    2.67
   2  -1   8   58.11    3.49
   2   1   8   44.97    3.14
   2   1   8   49.30    3.64
  -2  -1  -8   48.65    3.26
   2  -1   9  419.50   19.84
   2  -1   9  328.23   16.86
   2   1   9  370.19   19.09
   2   1   9  296.11   17.29
   2  -1   9  404.56   19.71
  -2   1  -9  344.31   19.84
  -2  -1  -9  362.01   18.16
   2  -1  10  236.68   12.01
   2  -1  10  216.90   14.36
   2  -1  10  210.68   11.88
   2   1  10  230.32   16.85
   2   1  10  244.82   13.20
   2   1  10  203.92   13.36
  -2   1 -10  242.69   14.78
  -2  -1 -10  243.77   13.24
   2  -1  11  230.62   15.95
   2  -1  11  247.75   14.46
   2  -1  11  266.25   13.92
   2   1  11  258.29   15.52
   2   1  11  210.61   14.29
   2   1  11  239.44   17.82
   2   1  11  236.83   13.66
   2  -1  11  231.68   13.82
  -2   1 -11  261.22   16.30
  -2  -1 -11  258.85   14.79
  -2  -1 -11  253.75   12.22
   2  -1  12   35.61    2.70
   2  -1  12   34.40    2.84
   2  -1  12   36.68    3.22
   2  -1  12   35.89    3.39
   2   1  12   36.05    2.89
   2   1  12   39.02    4.74
   2   1  12   41.99    3.18
   2   1  12   34.74    3.88
   2   1  12   45.25    3.79
   2  -1  12   36.25    4.11
  -2   1 -12   44.16    4.21
  -2  -1 -12   40.86    2.88
  -2  -1 -12   39.03    3.31
   2  -1  13    6.37    1.06
   2  -1  13    6.40    1.31
   2  -1  13    7.46    1.81
   2  -1  13    6.82    1.49
   2  -1  13    7.45    1.18
   2   1  13    9.42    1.51
   2   1  13    6.41    0.94
   2   1  13    5.46    1.45
   2   1  13    7.73    1.76
   2   1  13    6.39    1.97
  -2  -1 -13    7.26    1.40
  -2   1 -13    6.56    1.71
  -2  -1 -13    7.39    1.14
   2   1  14   36.67    3.62
   2  -1  14   39.06    3.90
   2  -1  14   39.05    4.67
   2  -1  14   37.96    3.29
   2   1  14   37.32    4.03
   2   1  14   38.63    5.39
   2  -1  14   36.45    4.02
   2   1  14   37.21    3.37
   2   1  14   32.88    3.81
  -2   1 -14   44.47    2.89
  -2   1 -14   41.31    4.52
  -2  -1 -14   42.47    3.24
  -2  -1 -14   43.20    3.95
   2   1  15    6.99    2.18
   2   1  15    8.47    1.92
   2  -1  15    8.08    2.05
   2  -1  15    6.45    1.29
   2  -1  15    7.97    1.25
   2   1  15    8.10    1.79
   2   1  15    7.77    1.11
   2  -1  15    7.56    1.72
   2   1  15    5.21    1.23
  -2   1 -15    7.59    1.16
  -2   1 -15    9.18    2.09
  -2  -1 -15    8.33    1.54
  -2  -1 -15    8.20    1.40
   2  -1  16  107.41   10.66
   2  -1  16   99.34    8.46
   2  -1  16  109.96    9.49
   2   1  16  102.01    9.20
   2   1  16   88.28   10.01
   2   1  16  106.14    8.18
   2   1  16  118.26   10.66
   2  -1  16  109.89   11.13
   2   1  16  102.00   10.63
  -2   1 -16  114.71   10.47
  -2  -1 -16  122.57    8.30
  -2  -1 -16  114.75    9.28
   2   1  17  446.84   30.82
   2  -1  17  430.22   37.25
   2  -1  17  466.08   38.25
   2  -1  17  452.50   32.41
   2  -1  17  500.28   36.28
   2   1  17  434.36   41.81
   2   1  17  461.03   37.35
   2   1  17  371.43   34.31
   2   1  17  465.28   33.65
  -2   1 -17  446.80   34.27
  -2  -1 -17  450.32   27.50
  -2  -1 -17  470.31   34.41
   2  -1  18   11.69    2.60
   2  -1  18   11.31    3.15
   2  -1  18    9.63    2.28
   2   1  18    8.91    2.46
   2   1  18   13.21    3.34
   2   1  18   10.72    1.82
   2   1  18   12.68    2.98
   2  -1  18    8.15    3.05
   2   1  18   11.30    3.38
  -2   1 -18   11.58    2.86
  -2  -1 -18   13.99    2.60
   2  -1  19  301.57   31.74
   2  -1  19  337.12   26.03
   2  -1  19  333.12   26.27
   2   1  19  326.77   27.91
   2   1  19  348.69   27.72
   2  -1  19  305.66   29.74
   2   1  19  329.46   33.72
   2   1  19  300.84   31.42
  -2   1 -19  332.96   27.18
  -2  -1 -19  314.45   26.22
   2  -1  20    4.08    1.61
   2  -1  20    0.31    1.09
   2  -1  20    3.05    1.25
   2   1  20    0.29    1.67
   2   1  20    0.38    0.85
   2  -1  20    0.37    1.54
   2   1  20    1.55    1.50
   2   1  20    5.71    1.74
  -2   1 -20    1.14    1.42
  -2  -1 -20    2.65    1.23
   2  -1  21   22.86    4.41
   2  -1  21   14.46    3.38
   2  -1  21   12.59    2.73
   2   1  21   18.21    3.66
   2   1  21   12.47    3.24
   2   1  21   18.68    4.46
  -2  -1 -21   12.54    3.01
   2  -1  22   27.53    4.49
   2   1  22   29.96    5.90
   2   1  22   25.57    3.81
   2   1  22   29.82    5.42
   2  -1  22   30.72    5.89
   2  -1  22   30.67    4.98
  -2  -1 -22   25.65    3.93
   2  -1  23   -0.22    0.73
   2  -1  23    0.48    0.87
   2  -1  23    0.01    0.58
   2   1  23    0.00    0.70
   2   1  23    0.04    0.89
   2   1  23    0.55    0.82
  -2   1 -23    0.04    0.52
  -2  -1 -23    0.05    0.62
   2  -1  24    5.64    2.17
   2  -1  24    6.84    2.46
   2   1  24    6.98    2.25
   2   1  24    4.43    2.40
   2   1  24    5.66    2.18
   2  -1  24    3.59    1.97
   2   1  24    5.91    2.67
  -2   1 -24    5.80    1.85
  -2  -1 -24    4.15    1.88
   2   1  25    9.40    2.77
   2   1  25    7.71    2.91
   2  -1  25   12.20    2.93
   2  -1  25   13.44    2.88
   2  -1  25    9.09    2.80
   2   1  25    6.33    2.42
   2   1  25    9.07    3.15
  -2   1 -25   11.01    2.30
   2  -1  26    0.06    0.55
   2  -1  26   -0.29    0.67
   2   1  26    0.02    0.53
   2   1  26    0.04    0.66
   2   1  26    0.29    0.72
   2  -1  26    0.02    0.65
   2  -1  26    0.15    0.71
   2   1  26    0.00    0.71
  -2   1 -26    0.18    0.53
   2  -1  27    6.64    1.63
   2   1  27    0.01    1.46
   2   1  27    5.30    1.58
   2  -1  27    5.33    1.50
   2   1  27    0.01    1.53
  -2   1 -27    2.12    1.29
   2   2 -28    0.03    0.50
   2  -2 -27    0.07    0.63
   2  -2 -27    0.06    0.57
   2   2 -27    0.22    0.67
   2  -2 -26    0.33    1.77
   2   2 -26    6.88    1.87
   2  -2 -26    4.34    1.74
   2   2 -26    5.84    1.59
  -2  -2  26    5.54    1.99
   2  -2 -25   13.12    3.02
   2   2 -25   15.30    3.21
   2  -2 -25   15.12    3.29
  -2  -2  25   13.04    3.21
   2  -2 -24   21.13    4.22
   2   2 -24   20.14    3.53
   2   2 -24   21.78    3.93
   2  -2 -24   20.37    3.82
  -2  -2  24   19.32    3.88
   2   2 -23    4.60    2.11
   2   2 -23    7.13    1.84
   2  -2 -23    3.97    1.97
  -2  -2  23    3.72    1.83
  -2  -2  23    5.30    2.10
  -2   2  23    3.41    1.65
   2  -2 -22   62.22    7.85
   2   2 -22   55.86    5.94
   2   2 -22   58.88    6.88
   2   2 -22   61.71    7.97
  -2   2  22   49.49    8.16
  -2   2  22   59.83    6.96
  -2  -2  22   59.96    7.04
  -2  -2  22   55.05    7.71
   2  -2 -21   51.92    7.62
   2   2 -21   53.25    5.81
   2   2 -21   53.30    6.62
   2   2 -21   60.10    7.67
  -2   2  21   51.42    6.09
  -2   2  21   53.29    8.43
  -2  -2  21   50.58    6.82
  -2  -2  21   58.75    6.45
   2  -2 -20  316.36   27.93
   2  -2 -20  278.13   25.30
   2   2 -20  329.63   29.12
   2   2 -20  315.16   23.68
   2   2 -20  325.96   27.16
   2   2 -20  289.41   28.54
  -2   2  20  270.40   26.61
  -2   2  20  295.04   30.75
  -2  -2  20  302.93   23.47
  -2  -2  20  320.34   27.49
  -2  -2  20  292.25   26.60
   2  -2 -19  101.79   11.87
   2  -2 -19  118.74   10.56
   2   2 -19  117.58   10.14
   2   2 -19  137.30   12.42
   2   2 -19  117.71   13.64
   2   2 -19  123.89   10.46
   2  -2 -19  112.94   12.24
   2   2 -19  134.76   13.05
  -2   2  19  118.15   14.07
  -2  -2  19  107.43   10.72
  -2  -2  19  112.36    9.60
  -2  -2  19  106.89   10.94
  -2   2  19  117.21   13.39
   2  -2 -18  176.38   17.15
   2  -2 -18  190.73   18.37
   2   2 -18  199.10   17.83
   2   2 -18  191.23   18.43
   2   2 -18  190.47   17.96
   2   2 -18  199.40   15.88
   2   2 -18  201.58   17.24
   2  -2 -18  195.71   16.07
   2  -2 -18  198.58   15.77
  -2   2  18  198.37   18.86
  -2   2  18  188.41   20.22
  -2  -2  18  184.98   15.40
  -2  -2  18  175.95   16.31
  -2  -2  18  199.68   15.00
   2  -2 -17    5.55    1.55
   2   2 -17    2.98    1.59
   2  -2 -17    4.11    1.60
   2  -2 -17    5.38    1.90
   2   2 -17    4.36    1.27
   2   2 -17    8.53    2.00
   2   2 -17    7.29    1.84
   2  -2 -17    2.67    2.11
   2   2 -17    7.20    2.17
  -2   2  17    5.93    1.96
  -2   2  17    5.40    2.24
  -2  -2  17    4.30    1.33
  -2  -2  17    3.61    1.53
  -2  -2  17    5.30    1.17
   2  -2 -16  209.55   16.69
   2  -2 -16  177.69   16.49
   2   2 -16  190.62   15.66
   2   2 -16  198.71   17.29
   2   2 -16  211.31   15.98
   2   2 -16  204.29   16.83
   2   2 -16  219.79   17.82
   2  -2 -16  194.79   18.55
   2  -2 -16  217.40   15.95
  -2   2  16  214.10   20.41
  -2   2  16  202.23   16.85
  -2  -2  16  202.48   16.09
  -2  -2  16  204.23   13.64
  -2  -2  16  222.15   16.87
   2  -2 -15   65.14    5.95
   2   2 -15   60.46    6.15
   2   2 -15   59.96    5.52
   2   2 -15   61.75    5.88
   2   2 -15   61.07    6.12
   2   2 -15   61.07    6.51
   2   2 -15   59.93    6.54
   2  -2 -15   57.62    5.92
   2  -2 -15   53.99    6.17
   2  -2 -15   53.54    7.22
  -2   2  15   57.26    5.94
  -2  -2  15   60.43    5.71
  -2  -2  15   60.19    5.54
  -2  -2  15   58.52    4.72
  -2   2  15   59.18    6.07
   2  -2 -14  179.93   13.94
   2  -2 -14  172.14   14.43
   2   2 -14  186.40   14.12
   2   2 -14  178.49   14.65
   2   2 -14  193.10   15.31
   2   2 -14  177.34   13.80
   2   2 -14  179.89   14.40
   2   2 -14  180.36   14.64
   2  -2 -14  153.38   13.40
   2  -2 -14  194.96   13.96
  -2   2  14  185.32   13.69
  -2   2  14  180.31   15.73
  -2  -2  14  173.50   12.63
  -2  -2  14  178.68   11.20
  -2  -2  14  187.79   12.14
   2  -2 -13  546.05   37.58
   2  -2 -13  566.56   40.93
   2  -2 -13  515.80   36.48
   2   2 -13  550.71   36.92
   2   2 -13  594.28   39.84
   2   2 -13  596.51   39.69
   2   2 -13  573.39   38.11
   2   2 -13  596.44   40.81
   2   2 -13  589.64   41.36
   2  -2 -13  590.49   37.39
   2  -2 -13  515.88   23.71
  -2   2  13  563.34   42.41
  -2   2  13  537.68   33.08
  -2  -2  13  581.74   34.51
  -2  -2  13  548.43   32.20
  -2  -2  13  555.51   36.23
   2  -2 -12  197.76   15.27
   2  -2 -12  186.60   13.96
   2  -2 -12  192.27   14.15
   2   2 -12  215.08   15.66
   2   2 -12  205.85   15.27
   2   2 -12  211.62   14.44
   2   2 -12  195.94   14.88
   2   2 -12  203.63   13.26
   2   2 -12  211.71   14.39
   2  -2 -12  177.69    8.61
   2  -2 -12  212.80   13.98
  -2   2  12  197.54   12.35
  -2  -2  12  210.58   13.08
  -2  -2  12  208.75   12.28
  -2   2  12  202.12   14.80
   2  -2 -11   16.74    2.04
   2  -2 -11   14.09    1.21
   2  -2 -11   15.79    2.13
   2   2 -11   17.81    2.53
   2   2 -11   17.45    2.13
   2   2 -11   14.41    1.61
   2   2 -11   14.09    2.21
   2   2 -11   17.21    2.28
   2   2 -11   13.15    2.22
   2  -2 -11   11.72    2.11
   2  -2 -11   11.79    2.16
  -2   2  11   15.31    2.39
  -2   2  11   15.17    1.72
  -2  -2  11   16.69    1.52
   2  -2 -10  838.33   47.74
   2  -2 -10  888.53   54.04
   2  -2 -10  815.08   35.38
   2  -2 -10  864.98   50.28
   2   2 -10  742.52   51.08
   2   2 -10  899.77   56.25
   2   2 -10  870.80   53.17
   2   2 -10  918.11   51.95
   2   2 -10  885.86   53.23
   2   2 -10  872.59   51.55
  -2   2  10  885.14   44.07
  -2  -2  10  909.31   43.65
   2  -2  -9   72.44    3.84
   2   2  -9   77.31    5.09
   2  -2  -9   70.17    5.36
  -2   2   9   83.51    4.72
  -2  -2   9   80.70    4.70
   2  -2  -8  136.65    6.48
   2  -2  -8  138.00    8.51
   2   2  -8  144.80    8.82
  -2   2   8  157.61    7.54
  -2  -2   8  163.03    7.80
   2  -2  -7 1065.44   42.45
   2  -2  -7 1040.85   49.71
   2   2  -7 1133.79   53.21
  -2   2   7 1166.83   45.95
  -2  -2   7 1136.02   47.63
   2  -2  -6  387.92   15.59
   2  -2  -6  408.69   19.99
   2   2  -6  432.39   19.96
  -2   2   6  442.74   16.59
  -2  -2   6  408.70   17.33
  -2  -2   6  417.28    7.30
   2  -2  -5  608.87   28.22
   2  -2  -5  604.31   23.95
   2   2  -5  605.16   25.99
  -2   2   5  661.45   21.80
  -2  -2   5  565.54   23.22
   2  -2  -4  695.28   30.43
   2  -2  -4  823.78   31.72
   2   2  -4  700.73   30.35
   2   2  -4  903.74   23.23
   2   2  -4  848.74   34.68
  -2   2   4  906.80   25.55
   2  -2  -3   37.17    2.58
   2  -2  -3   37.49    2.40
   2   2  -3   32.46    2.06
   2   2  -3   33.18    1.98
   2   2  -3   36.14    1.54
  -2   2   3   39.63    1.24
   2  -2  -2  258.96   11.11
   2   2  -2  303.51   10.11
   2   2  -2  253.27   10.31
   2   2  -2  263.22   11.92
   2  -2  -2  255.02   12.21
  -2   2   2  265.54    5.09
   2  -2  -1  767.13   28.97
   2  -2  -1  656.06   27.62
   2   2  -1  665.97   23.34
   2   2  -1  741.56   30.54
   2   2  -1  816.44   27.60
   2  -2   0    2.49    0.51
   2   2   0    3.11    0.56
   2   2   0    5.41    0.56
   2   2   0    2.34    0.55
   2  -2   1  181.90    8.43
   2  -2   1  239.09   10.92
   2   2   1  223.36   10.31
   2   2   1  225.18    8.14
   2   2   1  240.89    9.76
   2   2   2    9.58    0.98
   2   2   2    9.09    1.17
   2  -2   2   10.46    1.04
   2  -2   3  947.38   33.40
   2  -2   3  908.61   34.58
   2   2   3  862.52   38.56
   2  -2   3  914.41   17.24
   2   2   3  850.13   34.77
   2  -2   4  396.56   10.62
   2  -2   4  434.66   18.10
   2  -2   4  436.39   16.07
   2   2   4  371.03   17.01
   2   2   4  381.43   18.83
   2  -2   5  255.55   10.97
   2  -2   5  250.76    8.00
   2  -2   5  262.27   11.36
   2   2   5  239.04   12.49
   2   2   5  266.39   12.52
   2  -2   6  699.80   29.02
   2  -2   6  758.64   26.78
   2  -2   6  679.38   27.91
   2   2   6  668.61   34.88
   2   2   6  749.80   34.36
   2  -2   7 1835.17   70.10
   2   2   7 1784.79   85.30
   2  -2   7 1935.15   79.11
   2  -2   7 1812.53   75.94
   2   2   7 1749.68   91.36
  -2  -2  -7 1837.17   76.13
   2  -2   8   53.85    3.11
   2  -2   8   56.81    3.67
   2  -2   8   57.38    3.57
   2   2   8   55.26    5.06
  -2  -2  -8   53.51    3.18
  -2  -2  -8   57.20    3.67
   2  -2   9 1318.33   73.03
   2  -2   9 1288.60   57.55
   2  -2   9 1347.20   62.91
   2   2   9 1358.31   81.96
   2   2   9 1323.62   87.14
   2  -2   9 1396.69   67.04
  -2  -2  -9 1324.75   61.27
  -2  -2  -9 1367.93   60.80
   2  -2  10   35.41    2.36
   2  -2  10   25.87    2.06
   2   2  10   23.32    2.65
   2   2  10   23.01    3.23
   2   2  10   15.70    3.11
   2   2  10   21.89    2.15
   2  -2  10   21.32    2.36
   2  -2  10   24.48    1.90
   2  -2  10   24.00    2.07
  -2  -2 -10   25.34    2.21
  -2  -2 -10   24.54    2.07
  -2   2 -10   27.09    3.11
   2  -2  11   86.90    6.44
   2  -2  11   94.27    6.20
   2   2  11   80.39    6.59
   2   2  11   88.52    6.12
   2   2  11   89.97    7.16
   2   2  11   89.39    7.43
   2   2  11   80.18    7.85
   2  -2  11  100.06    6.77
   2  -2  11   86.04    6.15
   2  -2  11   95.97    5.46
  -2   2 -11   89.76    7.23
  -2  -2 -11   89.69    5.59
  -2  -2 -11   89.34    4.98
  -2   2 -11   84.60    7.74
   2  -2  12   36.77    3.30
   2  -2  12   33.73    3.71
   2  -2  12   34.70    2.87
   2   2  12   33.28    4.53
   2   2  12   31.04    4.50
   2   2  12   30.77    3.68
   2   2  12   34.98    3.72
   2   2  12   34.41    2.96
   2  -2  12   38.09    3.43
   2  -2  12   38.67    2.87
  -2   2 -12   35.61    4.23
  -2   2 -12   33.64    3.39
  -2  -2 -12   34.91    2.86
  -2  -2 -12   37.22    3.03
   2  -2  13  174.55   13.41
   2  -2  13  228.13   16.44
   2  -2  13  210.96   11.93
   2   2  13  205.99   18.77
   2   2  13  222.74   16.91
   2   2  13  219.41   14.12
   2   2  13  223.24   19.66
   2   2  13  239.49   16.52
   2  -2  13  217.97   13.69
   2  -2  13  243.98   15.86
  -2   2 -13  249.64   17.68
  -2   2 -13  228.75   17.62
  -2  -2 -13  264.14   14.96
  -2  -2 -13  226.74   13.45
   2  -2  14   50.71    4.31
   2  -2  14   41.97    4.89
   2   2  14   44.91    5.91
   2   2  14   44.90    5.18
   2   2  14   42.47    4.86
   2   2  14   42.07    4.05
   2   2  14   38.65    6.19
   2  -2  14   50.08    4.92
   2  -2  14   44.19    4.21
  -2   2 -14   56.90    5.72
  -2   2 -14   41.60    5.00
  -2  -2 -14   49.01    4.21
  -2  -2 -14   48.16    3.89
   2   2  15    0.72    1.14
   2   2  15    0.05    0.92
   2   2  15    0.91    1.35
   2   2  15    1.14    1.40
   2   2  15    1.60    0.81
   2  -2  15    2.92    1.07
   2  -2  15    2.41    1.02
   2  -2  15    1.75    0.87
  -2   2 -15    2.40    1.11
  -2  -2 -15    0.99    0.74
  -2  -2 -15    0.76    0.81
  -2   2 -15    2.16    1.05
   2  -2  16   44.14    5.66
   2  -2  16   44.19    4.08
   2   2  16   44.72    4.31
   2   2  16   43.32    6.85
   2   2  16   43.76    5.93
   2   2  16   48.67    5.65
   2   2  16   42.29    6.69
   2  -2  16   42.64    5.00
  -2   2 -16   44.00    5.19
  -2   2 -16   45.81    5.75
  -2  -2 -16   46.08    4.06
  -2  -2 -16   49.02    4.93
   2  -2  17  133.78   13.46
   2  -2  17  129.85   10.68
   2  -2  17  127.88   11.91
   2   2  17  131.96   10.23
   2   2  17  132.59   15.73
   2   2  17  139.81   13.01
   2   2  17  141.73   14.15
   2   2  17  124.75   13.03
   2  -2  17  142.61   10.86
  -2   2 -17  127.12   11.54
  -2   2 -17  131.00   12.33
  -2  -2 -17  141.82   10.41
  -2  -2 -17  146.12   12.98
   2  -2  18   46.93    6.39
   2  -2  18   41.80    4.23
   2   2  18   39.07    7.28
   2  -2  18   48.27    6.50
   2  -2  18   40.09    4.56
   2   2  18   38.91    4.71
   2   2  18   42.15    6.18
   2   2  18   40.97    4.24
   2   2  18   44.99    5.26
  -2  -2 -18   45.67    4.56
  -2   2 -18   43.19    4.65
   2  -2  19  209.73   18.00
   2  -2  19  197.46   15.94
   2  -2  19  207.55   21.14
   2   2  19  187.15   14.80
   2   2  19  216.20   21.28
   2   2  19  206.63   18.70
   2   2  19  182.02   22.15
   2   2  19  199.69   22.31
   2  -2  19  211.06   20.24
  -2   2 -19  204.36   19.39
  -2  -2 -19  186.00   15.60
   2  -2  20    0.05    0.47
   2   2  20    0.07    0.59
   2   2  20    0.13    1.25
   2   2  20    0.77    1.10
   2   2  20    4.40    1.35
   2  -2  20    0.39    0.87
   2  -2  20    0.50    1.11
  -2   2 -20    0.41    1.06
   2  -2  21   38.08    5.54
   2  -2  21   36.07    4.89
   2   2  21   32.28    5.95
   2   2  21   37.69    6.98
   2   2  21   34.01    6.23
   2  -2  21   41.52    6.98
   2  -2  22    0.05    0.92
   2  -2  22   -0.03    0.75
   2   2  22    0.30    0.98
   2   2  22    0.12    0.75
   2   2  22    0.14    0.92
   2   2  22    0.18    0.82
   2  -2  22    0.02    0.62
   2  -2  23    2.45    1.35
   2  -2  23    3.66    1.52
   2  -2  23    0.78    1.27
   2   2  23    1.20    2.12
   2   2  23    1.43    1.73
   2   2  23    4.93    1.79
   2   2  23    1.72    2.00
  -2   2 -23    3.90    1.39
   2  -2  24   37.57    6.24
   2  -2  24   27.54    4.28
   2   2  24   33.15    4.96
   2   2  24   29.12    6.19
   2   2  24   38.58    5.84
   2   2  24   35.69    6.29
   2  -2  24   33.02    5.17
  -2   2 -24   34.85    3.65
   2  -2  25    7.81    2.11
   2  -2  25    9.37    2.45
   2  -2  25    2.56    1.78
   2   2  25    6.83    2.46
   2   2  25    9.05    2.49
   2   2  25    5.16    2.65
   2   2  25    4.57    1.91
  -2   2 -25    7.21    1.90
   2  -2  26   11.90    2.52
   2   2  26    9.65    2.40
   2   2  26    5.52    1.98
   2   2  26   -0.09    2.22
   2   2  26    5.15    2.43
   2  -2  26    9.54    2.22
  -2   2 -26    8.53    2.01
   2  -2  27    0.70    0.81
   2   2  27    0.00    0.82
   2   2  27    0.36    1.03
   2  -2  27    0.57    0.76
  -2   2 -27    0.06    0.64
  -2  -2 -27    0.14    0.66
   2  -3 -27    0.09    0.91
   2   3 -27    2.21    0.90
  -2   3  27   -0.03    0.97
  -2   3  27    0.08    0.92
   2  -3 -26   27.56    5.42
   2   3 -26   37.82    4.82
   2   3 -26   34.56    4.74
   2  -3 -25   28.47    5.42
   2  -3 -25   36.89    5.39
   2   3 -25   34.53    4.41
   2   3 -25   39.33    5.52
  -2  -3  25   28.17    4.68
   2  -3 -24    7.36    2.59
   2  -3 -24   12.15    2.93
   2   3 -24   11.60    2.31
   2   3 -24    9.14    2.70
  -2  -3  24    6.38    2.64
  -2  -3  24    9.83    2.46
   2  -3 -23    3.25    2.03
   2  -3 -23    1.34    1.84
   2   3 -23    6.81    1.76
   2   3 -23    5.79    1.94
  -2  -3  23    3.39    1.66
  -2  -3  23    3.39    1.79
   2  -3 -22    2.85    1.57
   2  -3 -22    3.30    1.85
   2   3 -22    2.03    1.52
   2   3 -22    0.45    1.64
  -2   3  22    0.66    1.36
  -2  -3  22    4.99    1.49
  -2  -3  22    2.99    1.48
   2  -3 -21    4.99    2.06
   2  -3 -21    3.07    1.74
   2   3 -21    3.39    1.31
   2   3 -21    2.35    1.88
   2   3 -21    3.14    1.75
  -2   3  21    2.05    1.66
  -2  -3  21    2.46    1.58
  -2  -3  21    2.84    1.33
   2  -3 -20    8.75    3.25
   2  -3 -20    7.49    2.76
   2   3 -20   10.52    2.63
   2   3 -20   11.77    3.04
   2   3 -20    9.86    2.75
   2   3 -20   12.97    3.34
   2   3 -20   10.32    2.20
  -2   3  20    9.70    3.59
  -2   3  20    9.68    2.77
  -2  -3  20    9.15    2.49
  -2  -3  20   11.46    2.18
  -2  -3  20   10.15    2.70
   2  -3 -19   15.91    3.79
   2   3 -19   20.05    2.89
   2   3 -19   21.63    4.33
   2   3 -19   20.54    3.13
   2   3 -19   22.60    3.20
   2   3 -19   18.64    2.96
   2  -3 -19   17.09    3.88
  -2   3  19   17.15    4.57
  -2   3  19   18.12    4.55
  -2  -3  19   19.19    2.56
  -2  -3  19   21.41    3.07
  -2   3  19   22.23    3.70
  -2  -3  19   18.80    3.35
   2  -3 -18   41.01    6.01
   2  -3 -18   41.59    6.85
   2   3 -18   47.66    5.21
   2   3 -18   50.21    6.22
   2   3 -18   49.14    6.17
   2   3 -18   53.10    6.10
   2   3 -18   49.10    6.83
  -2   3  18   48.30    6.24
  -2   3  18   43.73    6.90
  -2  -3  18   41.63    5.25
  -2  -3  18   46.11    5.68
  -2  -3  18   48.03    4.97
  -2   3  18   45.24    7.43
   2  -3 -17  193.02   14.45
   2  -3 -17  179.77   17.81
   2  -3 -17  157.37   15.83
   2   3 -17  180.14   16.41
   2   3 -17  168.74   16.67
   2   3 -17  194.72   15.59
   2   3 -17  186.27   16.02
   2   3 -17  173.76   14.63
  -2   3  17  155.53   15.20
  -2   3  17  181.39   19.14
  -2  -3  17  191.38   15.66
  -2  -3  17  162.88   13.71
  -2  -3  17  177.89   13.59
   2   3 -16   27.11    3.81
   2  -3 -16   15.96    3.79
   2  -3 -16   16.73    3.35
   2  -3 -16   20.44    3.22
   2   3 -16   21.70    3.47
   2   3 -16   21.05    3.44
   2   3 -16   25.27    3.21
   2   3 -16   25.18    3.66
   2   3 -16   20.75    3.61
  -2   3  16   16.05    3.23
  -2   3  16   19.23    3.37
  -2  -3  16   18.84    2.88
  -2  -3  16   18.21    2.00
  -2  -3  16   22.40    3.12
   2  -3 -15    0.07    1.43
   2  -3 -15    0.35    1.10
   2  -3 -15    4.20    1.26
   2  -3 -15    2.16    1.18
   2   3 -15    2.25    1.36
   2   3 -15    1.77    0.88
   2   3 -15    0.80    0.83
   2   3 -15    1.94    1.22
   2   3 -15    2.96    1.35
   2   3 -15    0.54    1.22
  -2   3  15    0.36    1.57
  -2   3  15    0.87    1.16
  -2  -3  15    4.39    0.73
  -2  -3  15    5.36    0.98
  -2  -3  15    2.29    1.20
   2  -3 -14  557.81   43.60
   2  -3 -14  487.86   37.68
   2  -3 -14  585.51   40.34
   2  -3 -14  620.62   32.73
   2  -3 -14  550.34   39.55
   2   3 -14  578.86   41.44
   2   3 -14  583.79   40.89
   2   3 -14  551.42   40.22
   2   3 -14  585.25   43.55
   2   3 -14  600.11   41.95
   2   3 -14  586.00   42.86
  -2   3  14  560.73   40.75
  -2   3  14  558.52   48.08
  -2  -3  14  521.68   35.45
  -2  -3  14  572.47   37.31
  -2  -3  14  567.12   35.87
   2  -3 -13  100.23    6.25
   2  -3 -13   84.09    8.42
   2  -3 -13   81.39    7.62
   2  -3 -13   89.17    7.60
   2  -3 -13   93.83    7.77
   2   3 -13   88.62    7.64
   2   3 -13   93.89    7.99
   2   3 -13   90.13    8.57
   2   3 -13   94.98    8.69
   2   3 -13   95.22    7.58
   2   3 -13   95.66    8.17
  -2   3  13   92.01    7.72
  -2   3  13   94.39    9.69
  -2  -3  13   89.53    6.54
  -2  -3  13   92.73    6.69
  -2  -3  13   80.54    6.22
   2  -3 -12   50.84    4.77
   2  -3 -12   52.79    5.75
   2  -3 -12   51.26    3.91
   2  -3 -12   57.18    4.99
   2  -3 -12   52.78    5.12
   2   3 -12   57.07    4.83
   2   3 -12   59.78    5.92
   2   3 -12   74.76    5.77
   2   3 -12   57.23    5.49
   2   3 -12   55.38    5.40
   2   3 -12   60.42    5.46
   2  -3 -12   56.42    3.74
  -2   3  12   59.16    4.93
  -2   3  12   58.58    6.36
  -2  -3  12   53.71    4.08
  -2  -3  12   54.63    4.60
  -2  -3  12   47.28    4.03
   2  -3 -11    6.23    1.41
   2  -3 -11    5.40    1.67
   2  -3 -11    7.52    1.44
   2   3 -11    9.48    1.63
   2   3 -11    7.75    1.88
   2   3 -11    8.62    1.59
   2   3 -11    5.95    1.32
   2   3 -11    6.22    1.39
   2   3 -11    7.53    1.62
   2   3 -11    7.52    1.62
   2  -3 -11    7.13    1.06
   2  -3 -11    6.61    1.09
  -2   3  11    9.47    1.95
  -2   3  11    8.26    1.29
  -2  -3  11    8.28    1.36
   2  -3 -10  154.15   10.58
   2  -3 -10  171.29    9.42
   2  -3 -10  162.45   12.03
   2  -3 -10  162.53   11.05
   2   3 -10  171.95   12.57
   2   3 -10  167.85   11.71
   2   3 -10  168.69   10.59
   2   3 -10  152.37   11.36
   2   3 -10  159.39   11.75
   2   3 -10  162.62   11.33
   2   3 -10  156.80   10.59
  -2   3  10  173.35   13.28
  -2   3  10  164.67   10.13
  -2  -3  10  159.51    9.06
   2  -3  -9  102.06    6.76
   2  -3  -9  118.52    6.69
   2  -3  -9  114.04    7.53
   2   3  -9  111.49    8.36
   2   3  -9  111.19    8.35
   2   3  -9  111.21    7.91
   2   3  -9  114.16    7.44
   2   3  -9  106.37    7.34
  -2   3   9  118.47    6.97
  -2  -3   9  118.87    7.21
   2  -3  -8  256.72   13.16
   2  -3  -8  249.06   13.84
   2   3  -8  250.79   13.98
  -2   3   8  273.84   13.85
  -2  -3   8  262.20   13.20
   2  -3  -7  347.19   17.85
   2  -3  -7  349.82   16.76
   2   3  -7  328.87   16.90
  -2   3   7  338.83   14.96
  -2  -3   7  340.68   16.06
   2  -3  -6   35.28    2.56
   2  -3  -6   31.98    2.33
   2   3  -6   36.97    2.40
  -2   3   6   34.09    1.78
  -2  -3   6   34.82    2.46
   2  -3  -5  599.30   28.87
   2  -3  -5  533.56   23.98
   2   3  -5  546.09   24.18
   2   3  -5  523.55   25.52
  -2   3   5  655.86   23.40
  -2  -3   5  597.07   20.14
  -2  -3   5  567.64   13.64
   2  -3  -4  140.99    6.99
   2  -3  -4  147.53    8.13
   2   3  -4  134.78    6.55
   2   3  -4  136.12    7.25
  -2   3   4  156.61    5.42
  -2  -3   4  143.43    4.74
  -2  -3   4  161.29    4.63
   2  -3  -3  804.87   36.64
   2  -3  -3  788.86   33.65
   2   3  -3  780.28   29.61
   2   3  -3  810.44   37.65
  -2   3   3  818.33   21.44
  -2  -3   3  822.82   23.46
  -2  -3   3  744.74   19.68
   2  -3  -2  351.71   15.51
   2  -3  -2  360.01   16.81
   2   3  -2  381.72   14.35
   2   3  -2  394.20   19.57
  -2  -3   2  391.59   12.42
   2  -3  -1   39.76    2.38
   2  -3  -1   48.05    2.97
   2   3  -1   43.88    2.62
   2   3  -1   45.79    2.19
  -2  -3   1   38.65    1.07
  -2  -3   1   46.15    1.95
   2  -3   0  189.31    9.61
   2  -3   0  186.95    8.70
   2   3   0  168.77    8.79
   2   3   0  154.50    5.37
  -2  -3   0  186.62    7.04
   2  -3   1  717.36   30.91
   2   3   1  670.11   33.68
   2   3   1  824.12   26.07
  -2  -3  -1  662.68   25.81
   2  -3   2  132.48    6.66
   2   3   2  128.87    7.58
  -2  -3  -2  127.49    5.74
   2  -3   3  221.87    9.85
   2   3   3  208.82   12.14
  -2  -3  -3  242.46   10.25
   2   3   4  622.23   32.34
   2  -3   4  684.29   28.83
   2  -3   4  639.26   27.41
   2  -3   4  689.21   15.41
  -2  -3  -4  706.42   29.32
   2  -3   5   14.29    1.30
   2  -3   5   13.93    1.33
   2   3   5   13.87    1.86
   2  -3   5   15.40    0.76
  -2  -3  -5   15.94    1.14
  -2  -3  -5   13.23    0.88
   2   3   6  400.83   22.96
   2  -3   6  399.94   18.71
   2  -3   6  426.82   19.02
   2  -3   6  416.74   14.54
  -2  -3  -6  398.35   14.64
  -2  -3  -6  429.30   19.90
   2  -3   7  284.63   13.33
   2  -3   7  275.17   11.01
   2  -3   7  294.77   15.00
   2   3   7  226.75   15.95
  -2  -3  -7  282.87   11.33
  -2  -3  -7  299.49   14.69
   2  -3   8 1260.56   51.60
   2  -3   8 1196.63   52.89
   2  -3   8 1183.27   56.59
   2  -3   8 1242.19   67.94
   2   3   8 1164.20   64.38
   2   3   8 1344.22   76.64
   2   3   8 1267.97   82.45
  -2  -3  -8 1211.77   49.24
  -2  -3  -8 1333.71   61.26
   2  -3   9  706.44   40.11
   2  -3   9  705.14   31.48
   2  -3   9  705.38   35.83
   2  -3   9  734.95   33.82
   2   3   9  740.72   50.85
   2   3   9  694.08   39.56
   2   3   9  736.45   50.40
   2   3   9  724.85   42.76
   2   3   9  677.68   45.22
   2  -3   9  677.46   37.12
  -2   3  -9  673.90   42.50
  -2   3  -9  698.99   52.75
  -2  -3  -9  742.79   35.61
  -2  -3  -9  705.78   31.54
   2  -3  10   11.87    1.13
   2  -3  10   10.39    1.52
   2  -3  10    9.48    1.55
   2  -3  10   11.55    1.16
   2  -3  10    8.82    1.38
   2   3  10    9.93    1.81
   2   3  10    8.87    2.22
   2   3  10    8.69    2.31
   2   3  10    8.29    1.42
   2   3  10    8.29    1.57
  -2   3 -10   11.05    2.20
  -2   3 -10   10.08    2.14
  -2  -3 -10    8.69    1.19
  -2  -3 -10    9.11    1.10
   2  -3  11  114.69    6.62
   2  -3  11   84.66    5.69
   2  -3  11   94.38    6.74
   2  -3  11   86.04    6.43
   2  -3  11  102.49    6.15
   2  -3  11   96.70    7.25
   2   3  11   91.54    7.56
   2   3  11   89.29    6.56
   2   3  11   92.80    9.14
   2   3  11   89.20    7.71
   2   3  11   90.32    9.36
  -2   3 -11   96.48    8.36
  -2   3 -11   95.39    8.11
  -2  -3 -11   87.38    5.10
  -2  -3 -11   99.40    6.77
   2  -3  12   17.41    2.47
   2  -3  12   17.10    1.73
   2  -3  12   16.71    1.71
   2  -3  12   15.74    2.18
   2  -3  12   16.85    1.93
   2   3  12   16.27    3.25
   2   3  12   15.60    2.60
   2   3  12   13.99    1.68
   2   3  12   16.01    3.47
   2   3  12   13.50    2.08
  -2   3 -12   14.27    2.71
  -2   3 -12   17.95    2.85
  -2  -3 -12   16.89    2.22
  -2  -3 -12   16.71    1.63
   2  -3  13   35.03    3.36
   2  -3  13   29.66    2.85
   2  -3  13   31.33    3.75
   2  -3  13   32.90    3.16
   2   3  13   26.77    5.08
   2   3  13   29.92    4.32
   2   3  13   28.96    4.17
   2   3  13   31.25    5.23
   2   3  13   36.37    3.39
   2  -3  13   30.30    3.62
  -2   3 -13   29.65    4.23
  -2   3 -13   31.97    4.42
  -2  -3 -13   40.99    3.32
   2  -3  14    7.58    1.85
   2  -3  14    8.49    1.70
   2  -3  14   10.59    1.64
   2   3  14    6.70    2.24
   2   3  14    8.81    2.21
   2   3  14   10.02    2.73
   2   3  14    8.97    1.69
   2   3  14    6.02    2.82
  -2   3 -14    7.86    2.20
  -2   3 -14    7.65    1.57
  -2  -3 -14    7.02    1.50
   2  -3  15   23.34    2.88
   2  -3  15   21.35    3.40
   2  -3  15   24.55    3.25
   2   3  15   26.58    3.94
   2   3  15   18.63    4.36
   2   3  15   18.51    4.53
   2   3  15   18.78    3.46
   2   3  15   19.91    2.63
  -2   3 -15   21.57    3.42
  -2   3 -15   19.86    3.57
  -2  -3 -15   21.66    2.70
   2  -3  16    0.24    0.97
   2  -3  16    2.86    0.86
   2  -3  16    0.39    1.05
   2   3  16    0.56    1.36
   2   3  16    0.28    0.70
   2   3  16    0.09    1.57
   2   3  16    0.15    0.71
   2   3  16    0.05    1.15
  -2   3 -16    2.36    1.07
  -2   3 -16    3.28    1.08
  -2  -3 -16    0.65    0.77
   2  -3  17    2.57    0.98
   2   3  17   -0.18    1.45
   2   3  17    0.38    1.25
   2   3  17   -0.01    1.11
   2   3  17    0.43    1.69
   2   3  17    1.93    0.82
  -2   3 -17   -0.05    1.12
  -2   3 -17    0.18    1.08
  -2  -3 -17    1.17    0.85
   2  -3  18   15.29    3.37
   2  -3  18    8.35    2.32
   2  -3  18   13.75    2.65
   2   3  18   14.89    3.91
   2   3  18   14.12    3.49
   2   3  18   11.83    3.02
   2   3  18   11.38    2.22
   2   3  18   14.17    2.97
  -2   3 -18   13.49    2.77
  -2   3 -18   12.36    2.90
  -2  -3 -18   15.29    1.94
   2  -3  19    5.63    1.36
   2  -3  19    3.07    1.44
   2   3  19    3.01    1.49
   2   3  19    5.76    1.55
   2   3  19    5.33    1.95
   2   3  19    4.17    2.25
   2   3  19    7.01    2.54
   2   3  19    4.89    2.80
   2  -3  19    4.16    1.55
  -2   3 -19    5.71    2.07
  -2   3 -19    6.86    1.90
   2  -3  20    0.01    0.77
   2  -3  20    0.43    1.00
   2   3  20    0.02    1.24
   2   3  20    0.04    1.00
   2   3  20   -0.12    1.56
   2   3  20    0.28    0.91
   2   3  20    0.14    1.52
   2   3  20   -0.39    1.56
   2  -3  20    3.64    1.27
  -2   3 -20    3.58    0.99
   2  -3  21    7.10    1.81
   2  -3  21    2.32    1.37
   2  -3  21    3.22    2.30
   2   3  21    6.46    2.81
   2   3  21    4.27    2.57
   2   3  21    4.92    2.44
   2   3  21    3.90    2.33
   2  -3  22   86.36   11.32
   2  -3  22   77.39    8.67
   2  -3  22   75.04    7.73
   2   3  22   72.59   10.63
   2   3  22   78.31    9.98
   2   3  22   76.86   10.90
   2   3  22   79.47   11.41
   2  -3  23    7.90    2.25
   2   3  23    7.84    3.16
   2  -3  23    8.56    2.93
   2  -3  23    4.76    1.96
   2   3  23    5.23    2.49
   2   3  23    7.64    2.68
   2   3  23    8.86    2.97
  -2   3 -23    9.12    2.12
   2  -3  24   18.98    3.22
   2  -3  24   23.56    3.84
   2   3  24   20.34    5.00
   2   3  24   19.63    4.53
   2   3  24   22.60    4.81
   2   3  24   20.22    4.30
   2  -3  24   23.36    4.93
  -2   3 -24   25.57    3.74
   2  -3  25    6.58    2.22
   2  -3  25    3.33    1.72
   2   3  25    2.34    1.61
   2   3  25    3.69    2.14
   2   3  25    6.03    2.26
  -2   3 -25    4.50    1.65
  -2  -3 -25    6.22    1.87
   2  -3  26   31.30    4.47
   2  -3  26   28.04    4.46
   2   3  26   19.90    4.47
   2   3  26   24.60    4.43
  -2   3 -26   23.63    3.31
  -2  -3 -26   21.68    3.62
   2  -3  27    4.44    1.39
   2  -3  27    3.06    1.34
   2   3  27    0.58    1.40
  -2   3 -27    1.91    1.21
   2   4 -27   13.12    2.42
   2  -4 -26    0.63    1.31
   2   4 -26    2.32    1.08
   2   4 -26    3.98    1.35
  -2   4  26    2.48    1.36
  -2   4  26    0.06    1.40
   2  -4 -25   11.85    2.97
   2   4 -25   12.77    2.62
   2   4 -25   15.18    2.59
  -2   4  25   14.15    3.14
  -2   4  25    7.19    3.09
  -2  -4  25   11.05    2.58
   2  -4 -24    3.33    1.36
   2   4 -24    0.83    1.09
   2   4 -24    2.90    1.27
  -2  -4  24   -0.29    1.14
  -2   4  24    0.46    1.42
   2  -4 -23   19.92    4.36
   2   4 -23   23.39    3.66
   2   4 -23   24.35    3.94
  -2  -4  23   16.78    3.85
  -2  -4  23   17.67    3.42
   2  -4 -22   49.68    7.69
   2   4 -22   51.34    6.84
   2   4 -22   48.64    6.57
  -2  -4  22   46.02    6.22
  -2  -4  22   49.95    5.63
   2  -4 -21   63.04    8.34
   2  -4 -21   68.78    9.63
   2   4 -21   63.44    7.85
   2   4 -21   65.43    6.85
   2   4 -21   65.03    8.16
   2   4 -21   74.65    8.75
  -2   4  21   69.12    8.37
  -2  -4  21   63.00    6.68
  -2  -4  21   54.69    7.19
   2  -4 -20   53.60    7.24
   2  -4 -20   48.71    7.68
   2   4 -20   55.30    7.20
   2   4 -20   52.25    5.59
   2   4 -20   50.53    6.91
   2   4 -20   49.61    6.81
  -2   4  20   49.95    6.80
  -2  -4  20   50.38    5.56
  -2  -4  20   43.92    5.99
   2  -4 -19   34.18    6.15
   2  -4 -19   25.73    4.83
   2   4 -19   33.50    5.32
   2   4 -19   32.21    4.15
   2   4 -19   27.45    5.75
   2   4 -19   31.23    4.89
   2   4 -19   34.49    5.30
  -2   4  19   25.50    5.99
  -2   4  19   32.99    5.29
  -2  -4  19   31.06    4.58
  -2  -4  19   32.29    4.18
  -2  -4  19   32.84    4.39
   2  -4 -18   50.13    7.66
   2  -4 -18   48.01    7.23
   2   4 -18   51.12    5.70
   2   4 -18   48.96    5.63
   2   4 -18   45.35    6.41
   2   4 -18   50.50    7.07
   2   4 -18   54.31    6.89
   2  -4 -18   41.25    6.28
  -2   4  18   36.91    6.59
  -2   4  18   52.32    6.64
  -2  -4  18   55.57    5.63
  -2  -4  18   44.70    5.21
  -2  -4  18   50.39    5.40
   2  -4 -17  440.63   41.80
   2  -4 -17  432.47   37.04
   2  -4 -17  408.84   38.27
   2   4 -17  449.17   37.32
   2   4 -17  440.43   35.56
   2   4 -17  421.32   34.42
   2   4 -17  449.70   37.17
   2   4 -17  449.15   34.97
   2   4 -17  456.40   38.41
  -2   4  17  450.37   38.60
  -2   4  17  351.28   33.85
  -2  -4  17  461.82   35.83
  -2  -4  17  419.82   32.13
  -2  -4  17  429.79   31.29
   2  -4 -16   18.48    4.36
   2  -4 -16   14.37    3.28
   2  -4 -16   16.32    3.41
   2   4 -16   22.04    2.77
   2   4 -16   16.13    3.34
   2   4 -16   19.05    3.47
   2   4 -16   22.38    3.40
   2   4 -16   20.38    3.75
   2   4 -16   17.75    3.70
  -2   4  16   17.06    3.92
  -2   4  16   15.26    3.30
  -2  -4  16   18.05    2.77
  -2  -4  16   18.18    2.68
  -2  -4  16   19.17    2.62
   2  -4 -15  517.48   41.48
   2  -4 -15  561.41   47.72
   2   4 -15  553.10   40.27
   2   4 -15  562.28   41.40
   2   4 -15  551.44   40.57
   2   4 -15  533.28   39.85
   2   4 -15  497.26   36.17
   2   4 -15  406.82   36.18
   2  -4 -15  504.06   38.39
  -2   4  15  473.95   38.27
  -2   4  15  548.93   43.78
  -2  -4  15  559.22   36.64
  -2  -4  15  372.38   32.79
  -2  -4  15  533.39   35.53
   2  -4 -14   27.05    4.10
   2  -4 -14   35.16    5.04
   2  -4 -14   27.29    2.94
   2  -4 -14   23.26    3.99
   2   4 -14   31.91    3.84
   2   4 -14   27.65    4.00
   2   4 -14   28.61    3.93
   2   4 -14   31.00    3.48
   2   4 -14   28.79    4.27
   2   4 -14   27.38    3.95
   2  -4 -14   31.49    2.88
  -2   4  14   30.05    4.51
  -2   4  14   28.70    4.26
  -2  -4  14   28.08    3.02
  -2  -4  14   34.38    3.91
  -2  -4  14   30.26    3.30
   2  -4 -13    2.90    0.74
   2  -4 -13    0.31    1.04
   2  -4 -13    0.14    1.03
   2  -4 -13    2.34    1.26
   2  -4 -13    2.86    0.77
   2   4 -13    0.54    0.98
   2   4 -13    3.66    1.27
   2   4 -13    0.62    1.05
   2   4 -13    0.00    1.10
   2   4 -13    0.25    1.12
  -2   4  13    2.91    1.18
  -2   4  13    2.19    1.09
  -2  -4  13    2.50    0.78
  -2  -4  13    1.37    0.76
  -2  -4  13    0.10    0.98
   2  -4 -12   14.93    2.74
   2  -4 -12   13.78    1.76
   2  -4 -12    9.71    2.02
   2  -4 -12    8.98    2.14
   2  -4 -12   12.78    1.78
   2  -4 -12   12.34    2.24
   2   4 -12   11.94    1.72
   2   4 -12   13.95    2.42
   2   4 -12   15.25    2.28
   2   4 -12   12.09    2.15
   2   4 -12   14.02    2.41
   2   4 -12   14.20    2.70
   2   4 -12   11.47    2.53
  -2   4  12   11.71    2.23
  -2   4  12   15.03    2.60
  -2  -4  12   13.35    1.54
   2  -4 -11  253.37   17.89
   2  -4 -11  250.06   17.97
   2  -4 -11  259.69   16.59
   2  -4 -11  259.55   18.94
   2  -4 -11  270.66   16.23
   2  -4 -11  278.44   21.11
   2   4 -11  267.59   19.39
   2   4 -11  259.11   19.67
   2   4 -11  255.88   18.60
   2   4 -11  245.97   17.74
   2   4 -11  267.55   20.64
   2   4 -11  261.46   17.71
   2   4 -11  258.72   18.46
  -2   4  11  251.34   17.25
  -2  -4  11  248.85   14.71
   2  -4 -10   16.12    2.26
   2  -4 -10   16.71    2.11
   2  -4 -10   16.79    2.28
   2  -4 -10   18.25    2.70
   2  -4 -10   16.28    1.60
   2  -4 -10   12.72    2.24
   2   4 -10   14.18    2.42
   2   4 -10   14.78    2.24
   2   4 -10   15.83    1.95
   2   4 -10   15.05    2.36
   2   4 -10   16.55    2.00
   2   4 -10   15.35    2.47
   2   4 -10   15.48    2.13
  -2   4  10   14.86    1.76
  -2  -4  10   18.20    2.17
   2  -4  -9  581.11   37.26
   2  -4  -9  562.01   36.41
   2  -4  -9  494.59   28.65
   2  -4  -9  567.37   31.40
   2  -4  -9  559.50   32.56
   2   4  -9  558.05   35.91
   2   4  -9  602.77   38.32
   2   4  -9  541.83   34.29
   2   4  -9  575.98   39.27
   2   4  -9  541.64   35.98
   2   4  -9  523.84   30.67
   2   4  -9  566.62   33.98
  -2   4   9  516.79   28.17
  -2  -4   9  602.38   32.07
   2  -4  -8  153.18    8.61
   2  -4  -8  144.98    9.46
   2  -4  -8  131.85    8.20
   2   4  -8  158.90   10.38
   2   4  -8  148.00    8.36
   2   4  -8  156.76   12.14
   2   4  -8  164.70   10.17
   2   4  -8  157.09   10.18
   2   4  -8  155.40   11.20
   2  -4  -8  150.07   10.87
  -2   4   8  150.41   10.38
  -2   4   8  141.44    7.81
  -2  -4   8  157.22    9.18
   2  -4  -7  180.75   10.48
   2   4  -7  180.09   11.51
   2   4  -7  187.39   13.72
   2   4  -7  196.43   13.17
   2   4  -7  182.67   10.07
   2  -4  -7  191.87   10.83
  -2   4   7  193.43    9.83
  -2   4   7  181.93   12.39
  -2  -4   7  180.20    9.73
  -2  -4   7  168.86    8.15
   2  -4  -6   34.90    2.73
   2   4  -6   36.60    2.42
   2   4  -6   29.99    2.46
   2  -4  -6   32.85    2.38
  -2   4   6   35.90    2.16
  -2  -4   6   30.29    1.90
   2  -4  -5    1.61    0.71
   2  -4  -5    1.33    0.65
   2   4  -5    1.55    0.47
   2   4  -5    2.10    0.74
  -2   4   5    1.06    0.35
  -2  -4   5    3.16    0.31
  -2  -4   5    1.14    0.28
   2  -4  -4   52.51    3.45
   2  -4  -4   47.95    3.07
   2   4  -4   53.30    4.07
   2   4  -4   50.48    2.57
  -2   4   4   56.05    2.35
  -2  -4   4   48.00    1.96
  -2  -4   4   49.31    1.88
   2  -4  -3  350.49   17.21
   2  -4  -3  347.28   17.43
   2   4  -3  345.37   13.31
   2   4  -3  371.06   19.43
  -2   4   3  353.26   10.62
  -2  -4   3  360.11   12.07
  -2  -4   3  367.88   12.09
   2  -4  -2    8.29    1.01
   2  -4  -2    4.42    0.83
   2   4  -2    3.93    0.53
   2   4  -2    7.61    1.20
  -2  -4   2    4.40    0.48
  -2  -4   2    4.37    0.41
   2  -4  -1   41.27    3.05
   2  -4  -1   37.74    2.49
   2   4  -1   42.65    2.77
   2   4  -1   34.67    1.58
  -2  -4   1   37.91    1.92
   2  -4   0  474.09   22.91
   2   4   0  426.46   12.17
   2   4   0  403.88   22.49
  -2  -4   0  477.17   18.87
   2  -4   1 1084.20   50.34
   2   4   1 1071.14   58.94
  -2  -4  -1 1150.04   47.30
   2  -4   2   35.81    2.34
   2   4   2   33.13    3.35
  -2  -4  -2   37.99    2.54
   2  -4   3   28.03    2.37
   2   4   3   27.85    2.92
  -2  -4  -3   32.12    2.45
   2  -4   4  321.68   15.84
   2  -4   4  306.17   15.80
   2   4   4  307.37   19.31
  -2  -4  -4  350.21   17.21
   2  -4   5   20.25    1.76
   2  -4   5   17.60    1.49
   2   4   5   16.10    2.19
  -2  -4  -5   19.93    2.03
   2  -4   6  211.29   11.93
   2  -4   6  211.70   10.58
   2   4   6  216.17   13.25
   2   4   6  211.98   15.48
   2   4   6  191.11   13.67
   2   4   6  229.45   15.65
  -2   4  -6  203.34   18.23
  -2  -4  -6  247.02   13.34
   2  -4   7 1216.85   68.80
   2  -4   7 1198.05   64.41
   2  -4   7 1273.75   64.69
   2  -4   7 1342.96   62.36
   2   4   7 1160.97   74.93
   2   4   7 1286.34   85.75
   2   4   7 1253.50   71.64
   2   4   7 1318.93   88.02
  -2   4  -7 1238.05   95.98
  -2  -4  -7 1400.12   70.11
   2  -4   8  151.97    9.37
   2  -4   8  156.28    9.42
   2  -4   8  167.12    7.35
   2  -4   8  164.17    8.68
   2  -4   8  146.81    9.22
   2   4   8  151.30   12.16
   2   4   8  155.42   11.91
   2   4   8  154.86   10.86
   2   4   8  176.96   13.64
   2   4   8  157.17   10.41
  -2   4  -8  146.36   13.78
  -2  -4  -8  143.65   10.11
   2  -4   9  220.48   13.40
   2  -4   9  197.71   11.27
   2  -4   9  231.61   10.52
   2  -4   9  196.23   10.35
   2  -4   9  196.17   11.33
   2  -4   9  198.65   11.52
   2   4   9  245.48   15.78
   2   4   9  227.34   18.24
   2   4   9  190.69   15.49
   2   4   9  220.47   17.44
   2   4   9  211.00   13.63
  -2   4  -9  201.65   13.48
  -2   4  -9  230.06   19.01
  -2  -4  -9  223.52   12.24
   2  -4  10   10.70    1.45
   2  -4  10    8.66    1.20
   2  -4  10    9.18    1.04
   2  -4  10    6.11    1.12
   2  -4  10    9.54    1.51
   2  -4  10    9.80    1.56
   2   4  10    8.82    1.95
   2   4  10    8.64    1.54
   2   4  10   10.00    1.65
   2   4  10    8.26    2.39
   2   4  10    8.31    2.02
   2   4  10    8.13    2.56
  -2   4 -10   16.87    2.44
  -2   4 -10   10.17    1.99
  -2  -4 -10    9.94    1.56
   2  -4  11   84.53    5.36
   2  -4  11   74.30    6.19
   2  -4  11   84.20    5.10
   2  -4  11   84.42    6.42
   2  -4  11   84.62    6.59
   2   4  11   69.12    8.00
   2   4  11   79.01    6.46
   2   4  11   78.74    7.41
   2   4  11   75.97    8.74
   2   4  11   78.22    9.53
   2   4  11   77.66    7.50
  -2   4 -11   78.25    8.19
  -2   4 -11   77.76    7.43
  -2  -4 -11   77.56    5.94
   2  -4  12   91.34    7.18
   2  -4  12   88.78    6.62
   2  -4  12   89.84    7.35
   2  -4  12  102.46    6.94
   2   4  12   82.14    7.48
   2   4  12   72.24    6.84
   2   4  12   82.66    9.79
   2   4  12   75.11    9.40
   2   4  12   80.92    9.96
   2   4  12   84.54    7.00
  -2   4 -12   88.16    8.92
  -2   4 -12   84.08    7.18
  -2  -4 -12   86.08    6.73
   2  -4  13  291.13   20.40
   2  -4  13  266.43   19.36
   2   4  13  233.41   24.00
   2   4  13  258.97   22.65
   2   4  13  259.22   25.60
   2   4  13  275.11   20.95
   2   4  13  266.36   25.88
   2   4  13  249.63   18.24
   2  -4  13  271.78   19.22
  -2   4 -13  260.93   23.32
  -2   4 -13  272.42   21.11
  -2  -4 -13  270.89   17.95
   2  -4  14   14.15    2.64
   2  -4  14   14.50    2.56
   2  -4  14   14.34    2.47
   2   4  14   11.43    3.08
   2   4  14   12.34    2.15
   2   4  14   11.39    2.78
   2   4  14   13.92    3.68
   2   4  14   10.73    3.58
   2   4  14   12.97    2.19
  -2   4 -14   15.36    3.17
  -2   4 -14   14.99    2.97
  -2  -4 -14   13.21    1.67
   2  -4  15  342.00   26.50
   2  -4  15  332.48   23.11
   2   4  15  347.07   34.50
   2   4  15  326.86   23.48
   2   4  15  284.52   28.70
   2   4  15  323.60   30.00
   2   4  15  330.53   33.71
   2   4  15  347.22   29.23
  -2   4 -15  340.71   28.53
  -2   4 -15  353.86   30.06
  -2  -4 -15  348.63   23.86
   2  -4  16    7.38    2.12
   2   4  16    9.19    2.95
   2   4  16    9.26    3.50
   2   4  16    8.45    3.63
   2   4  16    6.44    3.35
   2   4  16    6.57    1.95
   2   4  16   20.81    2.85
   2  -4  16    9.21    2.47
  -2   4 -16    9.36    2.79
  -2   4 -16    9.71    2.51
  -2  -4 -16    7.41    2.00
   2  -4  17  168.95   15.16
   2  -4  17  170.50   13.74
   2   4  17  156.29   18.89
   2   4  17  159.67   16.75
   2   4  17  152.08   17.08
   2   4  17  145.18   12.46
   2   4  17  126.92   17.57
   2   4  17  148.71   18.47
  -2   4 -17  153.85   15.04
  -2   4 -17  162.83   15.54
  -2  -4 -17  152.04   12.48
   2  -4  18   64.16    6.67
   2  -4  18   59.34    7.39
   2   4  18   54.15    8.33
   2   4  18   56.74    9.41
   2   4  18   61.35    7.58
   2   4  18   47.70    9.03
   2   4  18   56.87    9.64
   2   4  18   55.20    5.88
  -2   4 -18   58.01    7.12
  -2   4 -18   56.04    6.14
  -2  -4 -18   56.97    6.12
   2  -4  19    3.46    1.70
   2  -4  19    2.64    1.34
   2  -4  19    0.69    1.01
   2   4  19    0.54    2.22
   2   4  19    3.74    1.30
   2   4  19    0.91    2.24
   2   4  19    1.29    1.92
   2   4  19    3.90    1.79
   2   4  19    1.00    2.10
  -2   4 -19    2.77    1.42
  -2   4 -19    3.86    1.62
  -2  -4 -19    2.14    1.29
   2  -4  20    5.82    1.91
   2  -4  20   10.24    2.82
   2  -4  20    8.90    2.36
   2   4  20    9.31    3.36
   2   4  20    9.35    3.12
   2   4  20    8.32    3.77
   2   4  20    9.07    2.38
  -2   4 -20   10.03    2.27
   2  -4  21    0.01    0.54
   2  -4  21   -0.18    0.86
   2  -4  21    0.07    0.69
   2   4  21    0.29    1.01
   2   4  21    0.59    0.98
   2   4  21   -0.19    0.95
   2   4  21    0.11    0.87
  -2   4 -21    0.32    0.64
   2  -4  22    5.99    2.10
   2  -4  22   11.98    2.41
   2  -4  22   13.30    3.56
   2   4  22    9.99    3.20
   2   4  22    8.48    3.67
   2   4  22   12.57    3.46
  -2   4 -22    9.76    2.33
  -2  -4 -22   11.45    2.80
   2  -4  23    4.32    2.26
   2  -4  23    5.32    1.77
   2   4  23    3.05    2.11
   2   4  23    6.45    2.40
   2   4  23    1.75    2.56
  -2   4 -23    4.25    1.63
  -2  -4 -23    3.91    1.90
   2  -4  24    0.24    0.94
   2  -4  24    0.44    1.28
   2   4  24    0.11    1.28
   2   4  24    0.31    1.21
  -2   4 -24    0.68    0.96
  -2  -4 -24    2.70    1.09
   2  -4  25   27.64    5.17
   2  -4  25   31.54    4.19
   2   4  25   22.23    4.71
   2   4  25   27.18    4.62
  -2   4 -25   29.09    3.74
  -2  -4 -25   27.93    4.24
   2  -4  26    3.36    1.83
   2  -4  26    2.22    1.45
   2   4  26    3.16    1.65
  -2   4 -26    3.33    1.21
   2  -5 -26    2.16    1.41
   2   5 -26    3.20    1.27
   2   5 -26    5.52    1.40
  -2   5  26    0.07    1.43
   2  -5 -25    2.44    1.62
   2   5 -25    2.61    1.30
   2   5 -25    3.29    1.50
  -2   5  25    2.98    1.93
  -2  -5  25    3.79    1.34
   2  -5 -24    2.08    1.64
   2   5 -24    2.17    1.27
   2   5 -24    2.69    1.30
  -2   5  24    0.30    1.70
  -2   5  24    2.75    1.58
  -2  -5  24    2.34    1.19
   2  -5 -23    3.01    1.57
   2   5 -23    2.16    1.29
   2   5 -23    1.77    1.39
  -2   5  23    1.49    1.71
  -2   5  23    0.68    1.73
  -2  -5  23    2.75    1.22
   2  -5 -22   17.24    3.36
   2   5 -22   10.93    2.79
   2   5 -22   15.16    2.88
   2   5 -22   12.90    2.79
  -2   5  22   11.46    3.52
  -2   5  22    2.68    2.76
  -2   5  22    7.29    3.37
  -2  -5  22   14.81    2.49
   2  -5 -21   19.49    4.76
   2   5 -21   18.66    4.02
   2   5 -21   18.86    3.66
   2   5 -21   18.29    3.18
   2   5 -21   20.84    3.68
  -2   5  21   19.30    4.07
  -2   5  21   19.34    4.77
  -2   5  21   14.26    4.40
  -2  -5  21   19.72    2.53
   2  -5 -20   18.41    4.63
   2   5 -20   17.40    3.07
   2   5 -20   20.10    3.83
   2   5 -20   19.54    3.83
   2   5 -20   19.65    3.96
  -2   5  20   17.24    4.02
  -2  -5  20   17.53    3.12
  -2  -5  20   14.85    3.11
   2  -5 -19   21.56    4.92
   2   5 -19   22.28    3.39
   2   5 -19   23.32    4.17
   2   5 -19   19.12    3.06
   2   5 -19   20.97    3.04
  -2   5  19   20.77    4.30
  -2  -5  19   20.03    2.60
  -2  -5  19   17.17    3.12
   2  -5 -18   -0.10    1.45
   2   5 -18    1.19    1.10
   2   5 -18    0.41    0.95
   2   5 -18    0.80    1.16
   2   5 -18    3.81    1.32
   2   5 -18    0.96    1.13
  -2   5  18    0.58    1.28
  -2  -5  18   -0.09    0.87
  -2  -5  18    0.59    1.16
  -2  -5  18    0.16    0.81
   2  -5 -17  102.27   13.18
   2   5 -17  108.37   10.40
   2   5 -17  117.14   12.18
   2   5 -17  107.43   11.87
   2   5 -17  110.28   11.31
   2   5 -17  100.29   11.01
   2   5 -17  105.74   12.26
  -2   5  17  105.37   12.20
  -2  -5  17  101.96    9.32
  -2  -5  17  102.50   10.62
  -2  -5  17   90.41    8.42
   2  -5 -16  125.39    9.81
   2  -5 -16  131.27   15.53
   2   5 -16  139.02   13.81
   2   5 -16  132.04   13.45
   2   5 -16  129.67   13.18
   2   5 -16  136.44   13.18
   2   5 -16  128.09   13.22
   2   5 -16  129.08   12.27
  -2   5  16  130.38   14.06
  -2   5  16  121.49   14.61
  -2  -5  16  120.62   10.09
  -2  -5  16  123.69   11.02
  -2  -5  16  127.62   12.45
   2  -5 -15    4.32    1.67
   2  -5 -15    3.39    1.18
   2  -5 -15    3.74    1.36
   2   5 -15    4.99    1.87
   2   5 -15    5.08    1.80
   2   5 -15    3.16    1.27
   2   5 -15    5.51    1.92
   2   5 -15    4.33    1.74
   2   5 -15    4.92    1.59
  -2   5  15    3.36    2.11
  -2   5  15    6.14    1.57
  -2  -5  15    2.88    1.23
  -2  -5  15    3.37    1.84
  -2  -5  15    4.90    1.54
   2  -5 -14  158.14   16.38
   2  -5 -14  149.74   11.15
   2  -5 -14  126.27   12.05
   2  -5 -14  144.13   10.76
   2   5 -14  156.43   13.97
   2   5 -14  163.27   14.66
   2   5 -14  143.79   12.58
   2   5 -14  145.62   14.22
   2   5 -14  151.45   13.31
   2   5 -14  139.68   12.60
  -2   5  14  150.67   15.66
  -2   5  14  145.40   14.72
  -2  -5  14  149.25   11.44
  -2  -5  14  164.35   13.70
   2  -5 -13   86.04    6.85
   2  -5 -13   75.71    7.21
   2  -5 -13   84.77    6.95
   2  -5 -13   85.74    9.93
   2   5 -13   87.45    8.88
   2   5 -13   79.39    7.85
   2   5 -13   79.56    7.87
   2   5 -13   80.04    7.84
   2   5 -13   81.83    9.01
   2   5 -13   94.30    9.01
  -2   5  13   85.01    9.24
  -2   5  13   81.88    8.86
  -2  -5  13   88.78    7.99
   2  -5 -12    1.48    1.53
   2  -5 -12    9.04    1.79
   2  -5 -12    4.16    1.01
   2  -5 -12    4.94    1.43
   2  -5 -12    6.06    2.08
   2   5 -12    6.10    1.68
   2   5 -12    6.03    1.72
   2   5 -12    4.56    1.63
   2   5 -12    3.83    1.64
   2   5 -12    4.90    1.70
   2   5 -12    6.01    1.62
   2   5 -12    3.68    1.91
  -2   5  12    4.52    1.68
  -2   5  12    4.79    1.90
  -2  -5  12    6.59    1.10
   2  -5 -11   31.58    4.51
   2  -5 -11   24.54    3.56
   2  -5 -11   30.17    3.43
   2  -5 -11   32.00    3.57
   2  -5 -11   32.50    3.83
   2   5 -11   29.94    4.37
   2   5 -11   34.58    4.05
   2   5 -11   31.14    3.76
   2   5 -11   26.58    3.82
   2   5 -11   31.46    3.86
   2   5 -11   31.41    4.22
   2   5 -11   30.98    3.70
  -2   5  11   30.56    4.45
  -2   5  11   29.54    3.76
  -2  -5  11   31.46    2.85
   2  -5 -10   47.61    4.46
   2  -5 -10   38.06    4.29
   2  -5 -10   48.70    4.41
   2  -5 -10   45.06    4.40
   2  -5 -10   45.41    4.63
   2   5 -10   46.46    5.00
   2   5 -10   41.56    4.37
   2   5 -10   41.42    4.78
   2   5 -10   43.92    3.78
   2   5 -10   43.33    4.27
   2   5 -10   38.06    5.10
   2   5 -10   45.72    5.37
  -2   5  10   48.75    4.35
  -2   5  10   44.17    5.39
  -2  -5  10   48.23    3.88
   2  -5  -9  363.91   23.56
   2  -5  -9  353.78   22.22
   2  -5  -9  350.36   24.48
   2  -5  -9  370.03   27.79
   2  -5  -9  363.14   23.16
   2  -5  -9  345.11   23.40
   2   5  -9  342.72   21.22
   2   5  -9  377.52   26.70
   2   5  -9  370.78   28.29
   2   5  -9  353.64   24.01
   2   5  -9  339.21   23.48
   2   5  -9  354.44   26.14
   2   5  -9  337.83   23.46
  -2   5   9  346.18   26.59
  -2   5   9  371.22   22.79
  -2  -5   9  355.36   19.75
  -2  -5   9  374.58   22.95
   2  -5  -8    2.56    1.04
   2  -5  -8    2.72    0.93
   2  -5  -8    4.16    0.95
   2  -5  -8    2.76    1.00
   2  -5  -8    2.07    1.20
   2   5  -8    6.24    1.26
   2   5  -8    2.88    0.89
   2   5  -8    1.71    1.20
   2   5  -8    4.47    1.12
   2   5  -8    2.98    1.18
   2   5  -8    3.64    1.42
  -2   5   8    3.51    0.94
  -2   5   8    3.57    0.82
  -2  -5   8    3.28    1.09
  -2  -5   8    3.73    0.68
   2  -5  -7   55.75    4.39
   2  -5  -7   51.41    3.69
   2  -5  -7   58.03    5.32
   2  -5  -7   56.96    4.41
   2   5  -7   57.59    3.80
   2   5  -7   52.85    5.59
   2   5  -7   60.99    5.37
   2   5  -7   54.29    5.13
   2   5  -7   55.66    4.93
   2   5  -7   55.25    5.07
  -2   5   7   52.90    5.41
  -2   5   7   54.88    3.47
  -2   5   7   56.27    5.34
  -2  -5   7   52.73    4.40
  -2  -5   7   49.52    2.86
   2  -5  -6   22.53    2.54
   2  -5  -6   20.99    2.84
   2  -5  -6   22.06    2.26
   2  -5  -6   21.67    2.12
   2   5  -6   21.59    2.98
   2   5  -6   23.86    2.66
   2   5  -6   20.55    1.71
   2   5  -6   22.64    2.69
   2   5  -6   21.70    2.50
   2   5  -6   22.78    2.52
   2   5  -6   22.28    2.49
  -2   5   6   23.17    2.31
  -2   5   6   22.26    1.72
  -2   5   6   21.70    2.29
  -2  -5   6   19.72    1.35
   2  -5  -5   83.83    5.28
   2  -5  -5   84.18    6.02
   2  -5  -5   90.67    5.52
   2   5  -5   83.77    6.30
   2   5  -5   77.48    4.05
   2   5  -5   90.12    7.78
   2   5  -5   95.77    7.12
   2   5  -5   86.07    5.96
   2   5  -5   89.24    6.32
   2  -5  -5   83.80    6.56
  -2   5   5   86.15    6.92
  -2   5   5   90.03    7.01
  -2  -5   5   81.03    3.84
   2  -5  -4   41.78    3.90
   2  -5  -4   44.77    3.20
   2  -5  -4   42.08    3.67
   2  -5  -4   45.10    3.46
   2   5  -4   43.57    3.92
   2   5  -4   46.76    4.72
   2   5  -4   44.10    4.23
   2   5  -4   47.78    4.09
   2   5  -4   43.60    2.25
  -2   5   4   47.54    4.34
  -2   5   4   45.90    3.81
  -2  -5   4   55.43    2.61
  -2  -5   4   45.00    2.47
   2  -5  -3   11.32    1.76
   2  -5  -3   12.27    1.72
   2  -5  -3   11.15    1.49
   2  -5  -3   14.65    1.63
   2   5  -3    8.88    1.90
   2   5  -3   20.68    2.14
   2   5  -3   12.91    2.05
   2   5  -3   10.59    1.45
  -2   5   3   12.77    1.81
  -2  -5   3   11.78    0.98
   2  -5  -2  684.84   34.28
   2  -5  -2  666.77   35.53
   2   5  -2  747.82   42.55
   2   5  -2  704.46   42.59
   2   5  -2  692.51   40.63
   2   5  -2  674.51   43.23
  -2  -5   2  663.02   25.67
  -2  -5   2  666.45   25.93
   2  -5  -1  139.59    8.71
   2  -5  -1  152.41    9.25
   2   5  -1  162.58   11.54
   2   5  -1  155.57   10.53
  -2  -5   1  159.94    7.09
   2  -5   0  558.66   30.37
   2   5   0  500.46   30.41
   2   5   0  575.40   34.92
   2   5   0  550.36   33.63
  -2  -5   0  583.56   24.97
   2  -5   1   20.82    1.80
   2   5   1   20.91    2.61
   2   5   1   17.43    2.37
   2   5   1   19.56    1.95
  -2  -5  -1   21.81    1.70
   2  -5   2  137.98    8.46
   2  -5   2  129.88    7.93
   2  -5   2  136.94    8.97
   2   5   2  151.19   10.64
   2   5   2  141.40    9.53
   2   5   2  138.00    9.26
  -2  -5  -2  144.30    7.15
   2  -5   3    0.11    0.28
   2  -5   3    0.03    0.45
   2  -5   3    1.35    0.45
   2   5   3    0.26    0.66
   2   5   3    0.39    0.41
   2   5   3    1.73    0.58
  -2  -5  -3    0.05    0.30
   2  -5   4   22.04    2.06
   2  -5   4   20.53    2.12
   2  -5   4   19.35    1.54
   2  -5   4   19.31    2.08
   2   5   4   22.58    2.35
   2   5   4   22.88    3.11
   2   5   4   23.19    3.33
   2   5   4   24.29    2.87
  -2   5  -4   25.90    3.08
  -2  -5  -4   24.43    2.12
   2  -5   5  618.59   33.06
   2  -5   5  660.84   32.78
   2  -5   5  616.65   34.66
   2  -5   5  606.28   33.91
   2  -5   5  613.44   35.32
   2   5   5  650.94   43.89
   2   5   5  663.38   38.50
   2   5   5  597.07   39.93
   2   5   5  648.85   43.46
  -2   5  -5  628.10   52.45
  -2  -5  -5  622.21   33.56
   2  -5   6  107.18    7.18
   2  -5   6  110.45    7.36
   2  -5   6  102.51    6.36
   2  -5   6  114.61    6.74
   2  -5   6  109.66    6.88
   2   5   6  120.81    8.44
   2   5   6  102.96    9.04
   2   5   6  114.23    9.04
   2   5   6  126.72    8.97
   2   5   6  112.63    8.64
  -2   5  -6  108.04   11.51
  -2  -5  -6  111.86    7.52
   2  -5   7  242.17   12.99
   2  -5   7  234.02   14.48
   2  -5   7  252.69   15.49
   2  -5   7  246.39   15.34
   2  -5   7  238.23   13.59
   2  -5   7  254.63   15.38
   2   5   7  258.20   20.03
   2   5   7  259.77   16.84
   2   5   7  218.25   16.69
   2   5   7  284.22   19.13
   2   5   7  265.28   19.84
  -2   5  -7  266.83   23.25
  -2   5  -7  233.68   16.29
  -2  -5  -7  260.08   15.34
   2  -5   8   10.58    1.36
   2  -5   8   11.12    1.43
   2  -5   8    8.74    1.55
   2  -5   8    9.47    1.25
   2   5   8    9.99    2.27
   2   5   8    9.43    2.06
   2   5   8    7.99    2.32
   2   5   8   10.76    1.78
   2   5   8   11.53    2.40
   2  -5   8   10.05    1.53
  -2   5  -8    8.57    1.76
  -2   5  -8   14.58    2.75
  -2   5  -8   11.43    2.17
  -2  -5  -8   11.54    1.79
   2  -5   9    8.63    1.15
   2  -5   9    7.98    1.55
   2  -5   9    8.40    1.43
   2  -5   9    8.34    1.11
   2  -5   9    7.66    1.23
   2   5   9    5.36    2.13
   2   5   9    9.55    1.69
   2   5   9    8.67    2.03
   2   5   9    7.56    2.51
   2   5   9   11.07    2.41
  -2   5  -9    6.34    1.60
  -2   5  -9    7.08    1.40
  -2   5  -9   10.43    1.74
  -2  -5  -9    7.20    1.72
  -2  -5  -9    9.77    1.67
   2  -5  10   80.86    6.28
   2  -5  10   74.84    6.15
   2  -5  10   75.79    5.92
   2  -5  10   82.74    5.23
   2   5  10   80.07    9.34
   2   5  10   76.32    6.43
   2   5  10   72.69    8.36
   2   5  10   81.83    8.18
   2   5  10   83.69    9.05
  -2   5 -10   70.07    6.41
  -2   5 -10   69.50    8.12
  -2   5 -10   73.28    7.16
  -2  -5 -10   67.99    6.58
  -2  -5 -10   76.67    6.44
   2  -5  11  135.06    8.35
   2  -5  11  129.86    9.52
   2  -5  11  137.07    9.59
   2   5  11  114.44    9.38
   2   5  11  133.19   12.24
   2   5  11  124.24   13.74
   2   5  11  104.71   10.74
   2  -5  11  112.38    9.05
  -2   5 -11  112.40    9.93
  -2   5 -11  124.77   10.80
  -2   5 -11  119.18   12.02
  -2  -5 -11  111.06   10.01
  -2  -5 -11  124.47    9.40
   2  -5  12    3.99    1.37
   2  -5  12    3.80    1.29
   2  -5  12    3.42    1.31
   2   5  12    3.58    1.38
   2   5  12    4.72    1.35
   2   5  12    1.92    2.04
   2   5  12    3.10    1.87
   2   5  12    5.74    2.05
  -2   5 -12    3.22    1.33
  -2   5 -12    3.70    1.61
  -2   5 -12    3.77    1.81
  -2  -5 -12    3.49    1.56
  -2  -5 -12    2.89    1.31
   2  -5  13   90.87    8.02
   2  -5  13   91.57    7.83
   2  -5  13   89.73    7.38
   2   5  13   71.37   10.60
   2   5  13   81.66    7.82
   2   5  13   80.23    9.54
   2   5  13   87.49    9.41
   2   5  13   82.87   10.80
  -2   5 -13   79.73    7.62
  -2   5 -13   90.95    8.75
  -2   5 -13   86.04    9.61
  -2  -5 -13   88.05    6.69
  -2  -5 -13   78.85    8.31
   2  -5  14   36.48    4.53
   2  -5  14   31.39    4.20
   2  -5  14   31.34    4.04
   2   5  14   28.98    3.74
   2   5  14   30.31    4.66
   2   5  14   29.06    6.04
   2   5  14   31.53    5.24
   2   5  14   22.10    4.73
  -2   5 -14   32.33    4.68
  -2   5 -14   30.23    4.15
  -2  -5 -14   24.61    4.46
  -2  -5 -14   30.55    3.84
   2  -5  15  106.60    9.27
   2  -5  15  109.59    9.77
   2  -5  15  112.07   10.16
   2   5  15   92.74    8.99
   2   5  15   99.32   13.78
   2   5  15  110.74   12.12
   2   5  15   86.74   13.47
   2   5  15  106.46   11.72
  -2   5 -15  107.72   10.86
  -2   5 -15  107.86   11.90
  -2  -5 -15   92.37   10.50
  -2  -5 -15  102.64    8.94
   2  -5  16   14.54    2.74
   2  -5  16   10.50    2.45
   2   5  16   10.57    4.12
   2   5  16   11.07    2.25
   2   5  16    9.88    3.23
   2   5  16    7.96    3.87
   2   5  16   12.06    3.77
  -2   5 -16   13.66    3.01
  -2   5 -16   10.76    3.12
  -2  -5 -16   11.67    2.20
  -2  -5 -16   10.55    2.92
   2  -5  17   13.25    3.07
   2  -5  17   14.06    2.77
   2   5  17   12.60    2.57
   2   5  17   17.12    3.71
   2   5  17    8.80    4.36
   2   5  17   12.91    4.56
   2   5  17   11.20    4.06
  -2   5 -17   11.43    2.33
  -2   5 -17   11.18    3.04
  -2  -5 -17   12.05    3.34
  -2  -5 -17   12.97    2.48
   2  -5  18   20.62    3.71
   2  -5  18   16.93    3.22
   2   5  18   17.35    3.18
   2   5  18   15.84    5.72
   2   5  18   15.27    5.35
   2   5  18   16.96    4.29
   2   5  18   17.03    4.87
  -2   5 -18   21.25    3.67
  -2   5 -18   18.36    3.77
  -2  -5 -18   17.60    4.10
  -2  -5 -18   13.69    3.17
   2  -5  19   98.17    9.01
   2  -5  19  117.53   12.40
   2  -5  19  109.62   10.89
   2   5  19  105.02   12.53
   2   5  19  102.34   14.46
   2   5  19  104.06   14.66
  -2   5 -19  103.29   11.53
  -2  -5 -19  101.34   11.62
   2  -5  20   16.62    2.96
   2  -5  20   22.38    3.47
   2  -5  20   25.36    4.34
   2   5  20   20.76    5.32
   2   5  20   17.61    3.49
   2   5  20   17.63    5.30
  -2   5 -20   21.87    3.59
  -2  -5 -20   22.84    4.54
   2  -5  21    1.58    1.39
   2  -5  21    6.25    1.66
   2  -5  21    6.93    2.22
   2   5  21    4.55    2.20
   2   5  21    4.37    2.81
   2   5  21    5.93    2.48
  -2   5 -21    4.90    1.68
  -2  -5 -21    5.81    2.14
   2  -5  22   13.49    3.24
   2  -5  22   11.78    2.58
   2   5  22    9.80    2.69
   2   5  22   10.57    3.54
  -2   5 -22   11.97    2.49
  -2  -5 -22   11.04    3.07
   2  -5  23    4.39    1.93
   2  -5  23    2.26    1.46
   2   5  23    1.38    2.00
   2   5  23    0.89    1.74
  -2   5 -23    4.71    1.42
  -2   5 -23    2.50    1.28
  -2  -5 -23    2.72    1.56
   2  -5  24   13.34    2.59
   2  -5  24   12.70    3.25
   2   5  24   10.36    3.29
   2   5  24    9.18    3.06
  -2   5 -24   11.70    2.31
  -2  -5 -24   11.52    2.80
   2  -5  25    1.28    1.42
   2  -5  25    0.92    1.14
   2   5  25    0.93    1.54
   2   5  25    2.56    1.21
  -2   5 -25    3.01    1.05
  -2  -5 -25    0.25    1.14
   2  -5  26   32.22    4.49
   2  -5  26   32.58    3.86
   2   5  26   25.30    4.23
  -2   5 -26   28.94    3.30
   2  -6 -25    6.95    1.82
   2   6 -25    6.76    1.54
   2   6 -25    8.47    1.55
  -2   6  25   -0.41    1.89
   2  -6 -24   13.47    2.57
   2   6 -24    0.16    1.91
   2   6 -24   10.19    2.04
  -2   6  24   12.12    2.58
  -2  -6  24   11.56    1.94
   2  -6 -23   13.17    2.78
   2   6 -23    0.05    1.84
   2   6 -23   10.12    2.18
  -2   6  23    8.55    2.81
  -2  -6  23   14.06    2.04
   2   6 -22    3.83    1.71
   2   6 -22    5.37    1.72
   2   6 -22    5.83    1.84
   2  -6 -22    5.72    2.31
  -2   6  22    6.63    2.24
  -2   6  22    0.67    1.83
  -2  -6  22    4.97    1.52
   2  -6 -21   -0.01    1.14
   2   6 -21    0.17    0.92
   2   6 -21   -0.05    0.88
   2   6 -21    0.05    0.95
  -2   6  21    3.63    1.12
  -2   6  21   -0.02    0.92
  -2  -6  21    0.00    0.80
   2  -6 -20  114.02   14.14
   2   6 -20  115.56   10.75
   2   6 -20  108.43   10.38
   2   6 -20  119.17   12.43
   2   6 -20  111.43   11.36
  -2   6  20  100.91   13.75
  -2   6  20   90.51   13.34
  -2   6  20  119.07   13.36
  -2  -6  20  124.27   11.28
   2   6 -19   11.21    2.51
   2   6 -19    9.44    2.99
   2   6 -19   10.72    2.91
   2   6 -19   12.13    3.17
   2  -6 -19   14.90    3.88
  -2   6  19   12.88    3.35
  -2   6  19    6.34    3.58
  -2   6  19   12.26    3.87
  -2  -6  19   11.46    2.61
   2  -6 -18    0.32    1.05
   2   6 -18    0.13    1.03
   2   6 -18    2.36    0.95
   2   6 -18    0.42    0.84
   2   6 -18    3.12    1.23
  -2   6  18    0.41    1.25
  -2   6  18    0.03    1.26
  -2   6  18    0.10    1.47
  -2  -6  18    0.01    0.64
   2  -6 -17   59.33    5.63
   2   6 -17   47.62    7.85
   2   6 -17   60.89    6.79
   2   6 -17   65.20    8.36
   2   6 -17   54.51    7.54
   2   6 -17   56.72    6.78
   2   6 -17   65.80    7.96
   2  -6 -17   56.48    9.15
  -2   6  17   50.26    8.67
  -2   6  17   44.13    8.15
  -2   6  17   58.16    8.55
  -2  -6  17   59.32    6.58
  -2  -6  17   59.67    7.27
   2  -6 -16    0.88    2.15
   2  -6 -16    1.78    1.11
   2   6 -16    2.01    1.66
   2   6 -16    4.15    1.47
   2   6 -16    5.01    1.73
   2   6 -16    6.90    1.76
   2   6 -16    0.88    1.41
   2   6 -16    0.50    1.82
  -2   6  16    4.64    2.11
  -2  -6  16    2.79    1.40
  -2  -6  16    0.86    1.53
  -2   6  16    1.82    2.01
   2  -6 -15  150.19   12.05
   2  -6 -15  141.05   12.45
   2   6 -15  161.79   16.02
   2   6 -15  146.85   13.34
   2   6 -15  138.94   14.22
   2   6 -15  153.14   14.92
   2   6 -15  152.12   15.82
   2   6 -15  145.39   13.35
   2  -6 -15  160.11   18.12
  -2   6  15  148.17   17.96
  -2   6  15  171.37   17.85
  -2  -6  15  160.42   13.66
  -2  -6  15  162.23   14.34
   2  -6 -14  139.21   11.30
   2  -6 -14  144.19   12.16
   2  -6 -14  151.60   16.74
   2   6 -14  137.89   12.50
   2   6 -14  133.50   13.42
   2   6 -14  141.65   12.74
   2   6 -14  135.17   14.10
   2   6 -14  158.44   14.54
   2   6 -14  141.26   13.66
  -2   6  14  137.83   16.18
  -2   6  14  139.64   16.15
  -2  -6  14  141.05   12.02
  -2  -6  14  147.57   13.50
   2  -6 -13  136.26   15.13
   2  -6 -13  128.30   10.75
   2   6 -13  129.29   12.67
   2   6 -13  116.62   11.50
   2   6 -13  130.07   12.81
   2   6 -13  129.83   14.16
   2   6 -13  139.68   12.63
   2   6 -13  119.31   10.60
   2   6 -13  117.54   10.91
   2  -6 -13  124.86    9.50
  -2   6  13  123.04   14.14
  -2   6  13  122.30   14.38
  -2  -6  13  128.80   10.14
   2  -6 -12   12.77    2.37
   2  -6 -12   10.82    3.43
   2  -6 -12   11.98    2.46
   2   6 -12   13.98    2.50
   2   6 -12   12.81    2.99
   2   6 -12   12.04    2.86
   2   6 -12   10.91    2.48
   2   6 -12   13.14    2.16
   2   6 -12   12.06    3.22
   2   6 -12   12.63    2.76
  -2   6  12   14.83    3.53
  -2   6  12   16.24    3.38
  -2  -6  12   11.77    2.52
   2  -6 -11    7.70    2.29
   2  -6 -11    6.00    1.59
   2   6 -11    6.53    1.96
   2   6 -11    5.32    1.49
   2   6 -11    6.04    2.11
   2   6 -11    3.40    2.04
   2   6 -11    3.52    1.71
   2   6 -11    6.46    1.85
   2  -6 -11    5.31    1.70
  -2   6  11    3.02    2.18
  -2   6  11    6.03    2.24
  -2  -6  11    6.50    1.67
   2  -6 -10   10.89    2.09
   2  -6 -10    8.79    1.56
   2  -6 -10    8.78    2.68
   2   6 -10    9.13    1.76
   2   6 -10    9.80    1.94
   2   6 -10   10.61    2.46
   2   6 -10    6.75    2.15
   2   6 -10    9.43    2.11
   2   6 -10    8.98    2.12
  -2   6  10    9.20    2.73
  -2   6  10    9.73    2.71
  -2  -6  10   11.59    2.10
   2  -6  -9   53.75    5.35
   2  -6  -9   56.34    6.40
   2  -6  -9   55.16    5.51
   2   6  -9   50.21    4.54
   2   6  -9   57.18    6.74
   2   6  -9   57.33    6.17
   2   6  -9   51.14    5.58
   2   6  -9   51.00    6.02
   2   6  -9   47.65    4.58
  -2   6   9   54.60    6.43
  -2   6   9   52.86    6.66
  -2  -6   9   54.58    5.19
  -2  -6   9   56.17    4.14
   2  -6  -8  138.99    9.28
   2  -6  -8  139.32   10.84
   2  -6  -8  137.20   10.46
   2  -6  -8  144.87   12.76
   2   6  -8  141.38   11.36
   2   6  -8  143.97   13.32
   2   6  -8  159.85   12.09
   2   6  -8  137.35   12.00
   2   6  -8  135.78   11.09
  -2   6   8  119.95   12.43
  -2   6   8  140.98   12.74
  -2  -6   8  133.61    9.01
  -2  -6   8  139.94    8.48
   2  -6  -7  183.15   14.44
   2  -6  -7  179.83   12.77
   2  -6  -7  188.21   11.55
   2  -6  -7  173.03   11.68
   2  -6  -7  184.12   12.74
   2   6  -7  189.11   16.19
   2   6  -7  197.35   15.29
   2   6  -7  179.64   14.43
   2   6  -7  181.81   13.00
   2   6  -7  181.47   13.89
  -2   6   7  186.17   15.65
  -2   6   7  190.33   15.53
  -2  -6   7  166.78   11.66
  -2  -6   7  170.63    9.79
   2  -6  -6  108.44    8.19
   2  -6  -6  110.15    7.53
   2  -6  -6  106.47    9.28
   2  -6  -6  138.38    8.68
   2   6  -6   97.84    7.83
   2   6  -6  115.86    9.19
   2   6  -6  115.67   10.95
   2   6  -6  112.30    9.41
   2   6  -6  109.16    8.69
   2   6  -6  113.38    8.87
   2  -6  -6  114.79    8.24
  -2   6   6  117.05   10.16
  -2   6   6  118.39   10.26
  -2  -6   6  105.45    5.80
   2  -6  -5   15.41    2.35
   2  -6  -5   16.99    1.99
   2  -6  -5   18.66    2.47
   2  -6  -5   16.58    1.68
   2   6  -5   15.07    2.49
   2   6  -5   16.57    2.40
   2   6  -5   14.90    2.44
   2   6  -5   17.77    2.49
   2   6  -5   18.46    3.01
   2   6  -5   16.55    2.22
  -2   6   5   16.23    2.90
  -2   6   5   17.14    2.18
  -2  -6   5   15.62    1.45
   2  -6  -4   43.48    3.61
   2  -6  -4   43.51    4.35
   2  -6  -4   41.06    3.84
   2  -6  -4   39.67    3.73
   2   6  -4   41.54    4.45
   2   6  -4   39.95    3.98
   2   6  -4   47.44    5.33
   2   6  -4   43.91    4.40
   2   6  -4   45.12    4.24
   2   6  -4   39.56    3.61
  -2   6   4   45.51    4.70
  -2   6   4   45.10    4.69
  -2  -6   4   45.01    2.66
   2  -6  -3   16.03    1.83
   2  -6  -3   13.96    1.90
   2  -6  -3   18.30    1.93
   2  -6  -3   14.36    2.25
   2   6  -3   16.65    2.17
   2   6  -3   12.55    1.89
   2   6  -3   17.94    2.74
   2   6  -3   14.36    2.13
   2   6  -3   16.13    2.43
  -2   6   3   14.31    2.62
  -2   6   3   14.37    1.87
  -2  -6   3   14.48    1.19
  -2  -6   3   19.93    1.29
   2  -6  -2  383.61   22.61
   2  -6  -2  382.76   22.77
   2  -6  -2  375.69   25.58
   2  -6  -2  395.13   23.29
   2   6  -2  374.41   23.69
   2   6  -2  399.09   28.83
   2   6  -2  400.97   26.55
   2   6  -2  408.76   26.18
   2   6  -2  401.44   26.41
  -2   6   2  409.21   27.78
  -2   6   2  381.71   25.50
  -2  -6   2  349.68   16.64
  -2  -6   2  478.46   21.56
   2  -6  -1  644.86   35.12
   2  -6  -1  651.61   41.44
   2  -6  -1  673.86   37.86
   2  -6  -1  640.11   36.29
   2   6  -1  637.99   41.04
   2   6  -1  677.12   41.84
   2   6  -1  654.44   43.77
   2   6  -1  654.85   41.54
   2   6  -1  656.53   42.71
  -2   6   1  657.31   42.80
  -2   6   1  667.80   43.53
  -2  -6   1  629.59   28.78
   2  -6   0  110.39    8.37
   2  -6   0  105.06    7.01
   2  -6   0  101.82    6.98
   2  -6   0  116.23    8.21
   2   6   0   97.54    7.49
   2   6   0  107.26    8.88
   2   6   0   99.52    8.15
   2   6   0  102.21    9.00
   2   6   0  101.22    8.04
  -2   6   0  107.39    8.29
  -2   6   0  100.30    7.93
  -2  -6   0  102.89    5.81
   2  -6   1  532.76   30.00
   2  -6   1  489.74   31.00
   2  -6   1  489.93   28.45
   2   6   1  423.09   28.56
   2   6   1  474.41   33.11
   2   6   1  504.81   27.69
   2   6   1  474.37   32.64
   2   6   1  474.07   31.71
   2  -6   1  458.15   26.09
  -2   6  -1  479.88   31.95
  -2   6  -1  482.36   31.32
  -2  -6  -1  469.63   23.63
   2  -6   2  182.45   11.07
   2  -6   2  170.17   10.78
   2  -6   2  204.23   11.58
   2   6   2  197.63   11.75
   2   6   2  175.66   13.71
   2   6   2  153.50   11.87
   2   6   2  183.49   14.09
   2   6   2  180.02   13.67
   2  -6   2  187.41   12.00
  -2   6  -2  181.56   13.08
  -2   6  -2  189.09   17.33
  -2   6  -2  179.24   13.18
  -2  -6  -2  184.16   10.42
   2  -6   3    7.41    1.15
   2  -6   3    8.91    1.39
   2  -6   3    7.68    1.46
   2  -6   3    4.88    1.18
   2   6   3    8.94    1.31
   2   6   3    4.65    1.63
   2   6   3    9.06    1.80
   2   6   3    7.70    1.24
   2   6   3    6.33    1.73
  -2   6  -3    5.97    1.46
  -2   6  -3    7.13    2.62
  -2   6  -3    6.26    1.08
  -2  -6  -3    7.87    1.27
   2  -6   4  177.55   10.74
   2  -6   4  158.96    9.70
   2  -6   4  161.89   10.11
   2  -6   4  156.92   10.69
   2  -6   4  137.36    9.31
   2   6   4  145.59   11.04
   2   6   4  150.98   12.18
   2   6   4  167.76   11.26
   2   6   4  152.67   12.92
   2   6   4  161.11   12.00
  -2   6  -4  150.56   11.37
  -2   6  -4  151.54   10.47
  -2   6  -4  168.69   17.11
  -2  -6  -4  169.13   10.57
   2  -6   5  485.51   29.20
   2  -6   5  470.93   27.92
   2  -6   5  459.86   27.71
   2  -6   5  471.44   26.92
   2  -6   5  508.47   27.75
   2   6   5  510.06   31.88
   2   6   5  451.77   33.14
   2   6   5  428.07   29.97
   2   6   5  490.58   35.49
   2   6   5  477.70   34.67
  -2   6  -5  472.69   30.56
  -2   6  -5  475.63   42.25
  -2  -6  -5  472.18   28.38
   2  -6   6  313.71   17.88
   2  -6   6  291.49   18.22
   2  -6   6  300.65   19.37
   2  -6   6  297.51   19.17
   2  -6   6  292.83   17.33
   2   6   6  307.62   24.82
   2   6   6  332.78   22.42
   2   6   6  274.88   20.97
   2   6   6  278.91   22.64
   2   6   6  312.41   21.21
   2   6   6  316.03   24.26
  -2   6  -6  295.20   20.80
  -2   6  -6  335.51   30.02
  -2  -6  -6  295.71   19.10
   2  -6   7  290.40   17.92
   2  -6   7  291.09   18.91
   2  -6   7  281.34   16.00
   2  -6   7  283.19   18.96
   2  -6   7  284.80   16.43
   2   6   7  301.97   21.01
   2   6   7  318.99   22.41
   2   6   7  259.89   20.39
   2   6   7  258.17   21.89
   2   6   7  295.06   24.47
   2   6   7  290.06   23.56
  -2   6  -7  277.02   19.43
  -2   6  -7  302.63   21.06
  -2   6  -7  294.23   27.36
  -2  -6  -7  280.56   18.81
   2  -6   8  137.49   10.68
   2  -6   8  141.79    8.93
   2  -6   8  124.32    8.06
   2  -6   8  137.01    9.42
   2  -6   8  134.53   10.10
   2   6   8  130.81   11.29
   2   6   8  118.69   11.99
   2   6   8  117.54   10.82
   2   6   8  130.75    9.79
   2   6   8  123.01   12.49
   2   6   8  132.87   12.49
  -2   6  -8  124.04   13.21
  -2   6  -8  123.57   10.23
  -2   6  -8  122.07    9.82
  -2  -6  -8  125.79    9.85
   2  -6   9   16.75    2.42
   2  -6   9   15.56    2.31
   2  -6   9   16.64    1.74
   2  -6   9   17.65    2.14
   2  -6   9   16.91    1.83
   2   6   9   15.06    2.70
   2   6   9   10.96    3.51
   2   6   9   11.96    2.39
   2   6   9   15.47    2.82
   2   6   9   16.27    2.55
  -2   6  -9   18.07    2.64
  -2   6  -9   11.63    2.65
  -2   6  -9   14.62    2.55
  -2  -6  -9   13.82    2.47
  -2  -6  -9   13.16    2.52
   2  -6  10   92.56    6.13
   2  -6  10   93.23    7.24
   2  -6  10   87.71    7.29
   2  -6  10   86.96    7.21
   2   6  10   87.00    9.39
   2   6  10   85.39    9.37
   2   6  10   86.55    8.21
   2   6  10   74.72    9.06
   2   6  10   90.98   10.03
  -2   6 -10   89.07    8.27
  -2   6 -10   85.58    9.75
  -2   6 -10   81.16    8.06
  -2  -6 -10   84.11    8.04
  -2  -6 -10   91.95    7.74
   2  -6  11  204.27   15.26
   2  -6  11  217.85   16.35
   2  -6  11  228.30   16.03
   2   6  11  205.89   16.29
   2   6  11  189.18   21.01
   2   6  11  169.13   17.91
   2   6  11  202.48   17.20
   2   6  11  203.98   20.10
  -2   6 -11  204.98   19.43
  -2   6 -11  204.81   16.50
  -2   6 -11  207.97   16.91
  -2  -6 -11  196.05   17.07
  -2  -6 -11  208.10   15.96
   2  -6  12   45.87    4.39
   2  -6  12   36.87    4.09
   2  -6  12   35.44    4.45
   2   6  12   31.25    4.12
   2   6  12   19.37    6.16
   2   6  12   32.18    4.32
   2   6  12   32.74    5.82
   2   6  12   23.62    5.78
  -2   6 -12   37.32    5.73
  -2   6 -12   30.00    4.01
  -2   6 -12   38.06    4.84
  -2  -6 -12   33.42    4.75
  -2  -6 -12   36.13    4.45
   2  -6  13   55.10    5.77
   2  -6  13   60.93    6.62
   2  -6  13   66.22    6.86
   2   6  13   53.60    8.80
   2   6  13   54.01    7.28
   2   6  13   38.91    7.61
   2   6  13   52.74    5.14
   2   6  13   53.40    8.07
  -2   6 -13   58.71    6.48
  -2   6 -13   51.72    6.12
  -2   6 -13   56.46    6.36
  -2  -6 -13   51.38    6.67
  -2  -6 -13   51.63    5.92
   2  -6  14    2.62    1.71
   2  -6  14    4.07    1.32
   2  -6  14    2.80    1.62
   2   6  14    2.03    2.19
   2   6  14    4.59    1.41
   2   6  14    6.56    1.90
   2   6  14    1.59    2.48
   2   6  14    0.24    2.11
  -2   6 -14    2.72    1.67
  -2   6 -14    5.00    1.93
  -2   6 -14    3.08    1.37
  -2  -6 -14    2.95    1.59
  -2  -6 -14    2.15    1.43
   2  -6  15   45.33    5.77
   2  -6  15   44.42    5.18
   2  -6  15   44.53    5.42
   2   6  15   37.58    4.87
   2   6  15   25.50    7.17
   2   6  15   36.12    7.51
   2   6  15   41.78    6.12
   2   6  15   40.40    6.96
  -2   6 -15   42.79    6.26
  -2   6 -15   32.91    4.34
  -2   6 -15   42.60    5.58
  -2  -6 -15   33.86    5.47
  -2  -6 -15   40.65    4.85
   2  -6  16   29.04    4.35
   2  -6  16   27.79    3.33
   2   6  16   23.87    3.75
   2   6  16   19.83    5.77
   2   6  16   23.05    6.67
   2   6  16   27.64    5.22
   2   6  16   22.42    5.85
  -2   6 -16   23.98    4.23
  -2   6 -16   27.40    4.90
  -2  -6 -16   24.07    4.79
  -2  -6 -16   32.91    4.83
   2  -6  17  174.25   14.96
   2  -6  17  176.77   15.02
   2   6  17  114.50   17.60
   2   6  17  162.66   20.63
   2   6  17  158.23   17.68
   2   6  17  151.19   18.53
  -2   6 -17  135.31   14.38
  -2   6 -17  170.41   17.00
  -2  -6 -17  146.07   15.71
  -2  -6 -17  185.73   17.19
   2  -6  18   70.53    7.93
   2  -6  18   74.55    8.58
   2   6  18   66.23    7.77
   2   6  18   60.32    9.82
   2   6  18   62.05   11.34
  -2   6 -18   72.21    8.67
  -2  -6 -18   59.63    8.50
   2  -6  19    1.88    1.33
   2  -6  19    3.45    2.12
   2  -6  19    6.61    1.70
   2   6  19    3.40    1.85
   2   6  19    5.51    2.35
  -2   6 -19    4.91    1.85
  -2  -6 -19    5.24    2.23
   2  -6  20    2.71    1.30
   2  -6  20    0.22    1.09
   2   6  20    0.04    1.23
   2   6  20   -0.07    1.43
  -2   6 -20    0.33    1.12
  -2  -6 -20    3.40    1.33
   2  -6  21    7.43    2.27
   2  -6  21   10.00    2.78
   2   6  21    6.42    3.43
   2   6  21    9.55    2.92
  -2   6 -21    8.97    2.13
  -2  -6 -21    8.63    2.58
   2  -6  22    0.27    0.83
   2  -6  22    0.75    1.04
   2   6  22    0.14    1.34
   2   6  22    0.07    1.09
  -2   6 -22    2.31    0.83
  -2   6 -22    0.16    0.83
  -2  -6 -22   -0.26    1.04
   2  -6  23    2.89    1.50
   2  -6  23    3.50    1.81
   2   6  23    1.03    1.98
   2   6  23    2.07    1.60
  -2   6 -23    3.46    1.25
  -2   6 -23    2.37    1.19
  -2  -6 -23    2.72    1.59
   2  -6  24    0.78    1.34
   2  -6  24    2.75    1.22
   2   6  24    0.13    1.68
  -2   6 -24    2.02    0.96
   2  -6  25    3.60    1.57
   2  -6  25    3.98    1.30
   2   6  25    1.36    1.74
  -2   6 -25    4.45    1.50
   2  -7 -24    6.15    1.78
   2   7 -24    6.77    1.52
  -2   7  24    3.86    1.81
  -2  -7  24    5.52    1.69
   2  -7 -23    2.25    1.41
   2   7 -23    3.72    1.16
   2   7 -23    1.20    1.16
  -2   7  23    3.08    1.56
  -2  -7  23    2.04    1.06
   2  -7 -22    2.68    1.40
   2   7 -22    0.05    1.14
   2   7 -22    0.41    1.07
   2   7 -22   -0.10    1.17
  -2   7  22    2.70    1.45
  -2  -7  22    3.77    0.95
   2  -7 -21    1.41    1.65
   2   7 -21    0.65    1.46
   2   7 -21    3.69    1.35
   2   7 -21    2.82    1.27
  -2   7  21    2.93    1.64
  -2   7  21   -0.03    1.44
  -2  -7  21    1.86    1.08
   2   7 -20   25.79    4.01
   2   7 -20   25.02    4.10
   2   7 -20   22.83    3.28
   2  -7 -20   21.98    3.78
  -2   7  20   22.93    4.76
  -2   7  20   10.05    3.99
  -2  -7  20   26.79    3.68
   2  -7 -19   11.67    3.60
   2   7 -19   14.05    2.71
   2   7 -19   14.97    2.82
   2   7 -19   10.48    2.36
   2   7 -19    0.00    2.12
  -2   7  19   13.58    3.16
  -2  -7  19   12.63    2.46
  -2   7  19    9.40    3.49
   2  -7 -18   13.66    4.34
   2   7 -18   13.54    3.54
   2   7 -18   14.95    2.97
   2   7 -18   15.16    2.58
   2   7 -18   21.46    3.08
  -2   7  18    8.59    4.19
  -2   7  18   13.75    3.98
  -2  -7  18   12.96    2.84
   2  -7 -17    5.88    2.31
   2  -7 -17    5.60    1.66
   2   7 -17    4.85    2.28
   2   7 -17    4.60    2.32
   2   7 -17    5.83    2.05
   2   7 -17    4.94    2.02
   2   7 -17    6.73    2.50
  -2   7  17    7.72    3.03
  -2   7  17    8.84    2.08
  -2  -7  17    8.21    2.16
   2  -7 -16   60.12    9.99
   2  -7 -16   56.97    5.88
   2   7 -16   52.76    6.73
   2   7 -16   66.39    8.15
   2   7 -16   63.95    8.32
   2   7 -16   56.92    7.14
   2   7 -16   60.60    8.16
  -2   7  16   51.11    9.44
  -2   7  16   59.58    9.10
  -2  -7  16   65.28    7.22
   2  -7 -15   96.97    9.14
   2  -7 -15   85.65    9.43
   2  -7 -15  106.18   12.06
   2   7 -15   98.43   10.95
   2   7 -15  104.41   11.36
   2   7 -15   99.18   11.82
   2   7 -15  106.08   11.94
  -2   7  15  101.55   13.23
  -2   7  15   94.53   13.16
  -2  -7  15  111.41   10.46
  -2  -7  15   99.04   10.46
   2  -7 -14   25.39    4.08
   2   7 -14   25.01    4.36
   2   7 -14   25.69    4.43
   2   7 -14   23.16    4.74
   2   7 -14   22.12    4.96
   2  -7 -14   23.60    3.67
   2  -7 -14   25.69    5.76
  -2   7  14   26.67    5.37
  -2   7  14   23.38    5.71
  -2  -7  14   26.78    2.98
  -2  -7  14   30.19    4.33
   2  -7 -13   83.34    8.87
   2  -7 -13   87.19   11.36
   2   7 -13   82.44    8.13
   2   7 -13   82.65    9.86
   2   7 -13   80.62   10.33
   2   7 -13   93.41    9.47
   2   7 -13   87.53    9.90
   2  -7 -13   77.37    7.21
  -2   7  13   81.12   11.29
  -2   7  13   76.50   10.80
  -2  -7  13   80.52    8.70
   2  -7 -12   77.59    9.75
   2  -7 -12   71.00    7.21
   2  -7 -12   67.07    7.68
   2   7 -12   71.31    8.65
   2   7 -12   64.41    8.34
   2   7 -12   74.58    8.53
   2   7 -12   64.96    7.54
   2   7 -12   66.53    8.84
  -2   7  12   59.06    9.42
  -2  -7  12   70.20    6.88
  -2   7  12   69.87    9.58
   2  -7 -11    1.03    1.71
   2  -7 -11    1.44    1.38
   2  -7 -11    1.81    0.92
   2   7 -11    2.87    1.56
   2   7 -11    0.69    1.54
   2   7 -11    1.09    1.39
   2   7 -11    3.97    1.53
   2   7 -11    1.87    0.99
  -2   7  11    2.79    1.64
  -2   7  11    5.70    1.88
  -2  -7  11    2.19    1.17
   2  -7 -10    7.53    1.99
   2  -7 -10    6.13    2.37
   2  -7 -10    7.15    1.80
   2   7 -10   10.18    2.48
   2   7 -10    9.00    2.19
   2   7 -10   11.98    2.51
   2   7 -10    7.21    2.02
   2   7 -10    6.05    2.49
  -2   7  10    5.07    2.59
  -2   7  10    8.64    2.01
  -2  -7  10    7.53    2.02
   2  -7  -9   18.86    2.86
   2   7  -9   15.10    2.91
   2   7  -9   16.85    3.54
   2   7  -9   16.74    3.29
   2   7  -9   12.46    3.01
   2   7  -9   14.97    2.62
   2  -7  -9   17.19    3.30
   2  -7  -9   17.09    3.06
  -2   7   9   15.91    3.38
  -2   7   9   16.21    3.75
  -2  -7   9   15.59    2.74
   2  -7  -8    4.87    1.73
   2  -7  -8    6.54    2.01
   2   7  -8    3.60    1.82
   2   7  -8    7.03    1.67
   2   7  -8    7.34    2.25
   2   7  -8    6.61    1.77
   2   7  -8    7.70    2.05
   2  -7  -8    5.29    1.89
  -2   7   8    4.16    1.65
  -2   7   8    5.77    2.14
  -2  -7   8    6.59    1.50
   2  -7  -7    5.86    1.67
   2  -7  -7    6.20    1.33
   2   7  -7    6.76    1.38
   2   7  -7    3.77    1.74
   2   7  -7    5.64    2.15
   2   7  -7    6.06    1.72
   2   7  -7    4.74    1.71
   2  -7  -7    6.61    1.95
  -2   7   7    6.83    2.21
  -2  -7   7    5.62    1.45
  -2   7   7    6.60    1.61
   2  -7  -6  119.84    9.49
   2  -7  -6  103.65    8.07
   2  -7  -6  113.58   10.63
   2   7  -6  121.16   12.08
   2   7  -6  122.67   10.74
   2   7  -6  103.96    9.92
   2   7  -6  112.90    9.33
   2   7  -6  115.46   10.62
  -2   7   6  118.78   10.35
  -2   7   6  120.60   11.91
   2  -7  -5  173.86   14.44
   2  -7  -5  184.55   13.35
   2  -7  -5  187.37   12.46
   2   7  -5  155.05   12.21
   2   7  -5  179.80   14.55
   2   7  -5  183.59   14.99
   2   7  -5  190.25   16.94
   2   7  -5  173.44   12.98
   2   7  -5  174.96   14.98
   2  -7  -5  163.50   11.33
  -2   7   5  193.47   16.52
  -2   7   5  180.17   15.30
   2  -7  -4   27.81    2.71
   2  -7  -4   22.16    2.91
   2  -7  -4   25.64    3.52
   2  -7  -4   26.06    2.90
   2   7  -4   22.35    2.99
   2   7  -4   25.90    3.33
   2   7  -4   24.38    3.28
   2   7  -4   25.03    2.74
   2   7  -4   20.66    3.28
  -2   7   4   25.22    3.03
  -2   7   4   27.35    3.73
   2  -7  -3  134.57    8.95
   2  -7  -3  114.69    7.94
   2   7  -3  112.84    9.21
   2   7  -3  127.58   10.66
   2   7  -3  137.39   10.66
   2   7  -3  130.37   11.91
   2   7  -3  125.01   11.02
   2  -7  -3  130.60    8.62
   2  -7  -3  120.23   10.33
  -2   7   3  130.22   11.34
  -2   7   3  127.99   11.21
   2  -7  -2   40.63    3.44
   2  -7  -2   42.81    3.34
   2   7  -2   44.69    3.93
   2   7  -2   52.44    5.10
   2   7  -2   46.11    4.54
   2   7  -2   47.30    4.63
   2   7  -2   41.69    4.75
   2  -7  -2   44.72    4.67
  -2   7   2   40.23    4.00
  -2   7   2   44.28    5.12
  -2  -7   2   41.97    3.04
   2  -7  -1  182.29   12.82
   2  -7  -1  186.12   12.60
   2   7  -1  171.53   13.53
   2   7  -1  200.70   14.44
   2   7  -1  199.83   16.18
   2   7  -1  179.71   14.78
   2   7  -1  187.34   14.61
   2  -7  -1  190.04   13.76
  -2   7   1  188.31   14.70
  -2   7   1  188.88   18.81
  -2   7   1  194.77   15.18
  -2  -7   1  187.56   10.51
   2  -7   0    0.31    0.87
   2  -7   0    1.56    0.72
   2  -7   0    1.59    0.78
   2   7   0    0.05    0.68
   2   7   0   -0.08    1.01
   2   7   0    0.72    0.90
   2   7   0    0.15    1.08
   2   7   0    2.85    0.87
  -2   7   0    0.34    0.68
  -2   7   0    0.30    0.95
  -2   7   0    4.13    1.34
  -2  -7   0    2.13    0.60
   2  -7   1  253.35   16.80
   2   7   1  201.51   16.17
   2   7   1  231.43   18.92
   2   7   1  227.48   16.46
   2   7   1  243.71   20.10
   2   7   1  226.30   17.52
   2  -7   1  236.85   15.65
   2  -7   1  227.10   17.22
  -2   7  -1  227.11   17.58
  -2   7  -1  229.77   17.94
  -2   7  -1  239.39   24.44
  -2  -7  -1  277.20   16.70
   2  -7   2  172.36   11.57
   2  -7   2  169.17   12.65
   2  -7   2  183.38   12.44
   2   7   2  191.57   12.07
   2   7   2  172.46   12.86
   2   7   2  183.42   15.72
   2   7   2  153.13   13.21
   2   7   2  157.21   12.94
   2   7   2  161.17   13.69
  -2   7  -2  176.19   13.33
  -2   7  -2  183.34   19.59
  -2  -7  -2  208.55   13.57
  -2   7  -2  168.32   13.29
   2  -7   3   30.46    2.96
   2  -7   3   32.76    3.34
   2   7   3   31.20    4.49
   2   7   3   34.15    3.44
   2   7   3   27.21    3.42
   2   7   3   25.36    3.56
   2   7   3   27.73    4.05
   2   7   3   30.31    3.84
   2  -7   3   29.08    2.93
  -2   7  -3   26.04    3.51
  -2   7  -3   27.86    3.52
  -2   7  -3   34.55    5.74
  -2  -7  -3   28.95    2.92
   2  -7   4   38.79    3.54
   2  -7   4   33.17    3.20
   2  -7   4   35.67    3.14
   2  -7   4   32.38    3.05
   2  -7   4   31.29    3.23
   2   7   4   36.20    4.91
   2   7   4   35.91    4.02
   2   7   4   31.20    4.52
   2   7   4   31.29    3.59
   2   7   4   35.40    4.79
   2   7   4   36.43    4.39
  -2   7  -4   34.92    3.83
  -2   7  -4   33.22    3.85
  -2   7  -4   36.64    6.35
  -2  -7  -4   35.66    3.43
   2  -7   5    3.11    1.03
   2  -7   5    3.86    0.95
   2  -7   5    2.34    0.73
   2   7   5    5.64    1.26
   2   7   5    1.95    1.13
   2   7   5    3.58    1.61
   2   7   5    3.58    1.64
   2   7   5    2.38    1.53
   2  -7   5    6.72    1.29
  -2   7  -5    2.28    1.21
  -2   7  -5    2.70    1.27
  -2   7  -5    2.34    1.17
  -2   7  -5    3.51    2.06
  -2  -7  -5    1.95    1.10
   2  -7   6   29.97    3.14
   2  -7   6   31.24    3.67
   2  -7   6   30.72    2.94
   2  -7   6   33.02    3.74
   2   7   6   27.69    4.60
   2   7   6   34.34    4.71
   2   7   6   28.63    3.74
   2   7   6   32.44    4.61
   2   7   6   33.92    4.04
  -2   7  -6   32.22    4.02
  -2   7  -6   32.94    3.51
  -2   7  -6   30.92    4.68
  -2  -7  -6   32.21    3.64
   2  -7   7  136.56    9.15
   2  -7   7  146.00   11.55
   2  -7   7  140.03    9.41
   2  -7   7  137.23   11.23
   2   7   7  142.97   12.25
   2   7   7  125.02   12.93
   2   7   7  131.63   11.82
   2   7   7  129.59   13.70
   2   7   7  140.19   13.50
  -2   7  -7  139.65   11.94
  -2   7  -7  140.08   10.68
  -2   7  -7  139.93   14.55
  -2  -7  -7  127.49   10.82
   2  -7   8   24.48    3.70
   2  -7   8   22.26    2.28
   2  -7   8   24.12    3.43
   2  -7   8   20.88    2.62
   2  -7   8   25.01    2.82
   2   7   8   20.93    3.70
   2   7   8   19.48    4.11
   2   7   8   22.72    3.71
   2   7   8   18.07    4.48
   2   7   8   19.01    4.13
  -2   7  -8   23.95    4.60
  -2   7  -8   22.55    3.64
  -2   7  -8   23.46    3.24
  -2  -7  -8   17.60    3.21
   2  -7   9  100.95    7.94
   2  -7   9  103.20    9.80
   2   7   9  103.01   10.20
   2   7   9   83.52   10.65
   2   7   9   99.73   10.02
   2   7   9   95.20   10.91
   2   7   9   93.02   11.64
   2  -7   9   95.94    8.84
  -2   7  -9   97.42    9.10
  -2   7  -9   96.06    8.78
  -2   7  -9   93.71   11.64
  -2  -7  -9   96.93    8.73
   2   7  10   15.19    3.59
   2  -7  10   12.30    2.82
   2  -7  10   15.62    2.18
   2   7  10   12.80    3.66
   2   7  10    9.18    3.52
   2   7  10   14.57    2.98
   2  -7  10   15.42    2.61
  -2  -7 -10   15.08    2.79
  -2  -7 -10   13.53    2.79
  -2   7 -10   12.80    2.84
  -2   7 -10   13.05    2.69
  -2   7 -10   12.92    3.87
   2  -7  11   65.68    6.01
   2   7  11   69.31    6.65
   2   7  11   55.55    7.36
   2   7  11   58.10    8.78
   2   7  11   61.45    8.70
   2  -7  11   69.76    6.29
   2  -7  11   63.51    5.86
  -2   7 -11   62.66    7.42
  -2   7 -11   66.35    7.02
  -2   7 -11   70.20    9.13
  -2  -7 -11   61.83    7.16
  -2  -7 -11   65.88    6.92
   2  -7  12   67.75    6.13
   2   7  12   54.19    9.36
   2   7  12   51.28    8.84
   2  -7  12   66.49    6.93
   2  -7  12   65.40    6.90
   2   7  12   50.82    7.93
   2   7  12   53.73    5.82
  -2  -7 -12   57.02    6.85
  -2   7 -12   57.00    8.63
  -2  -7 -12   58.42    7.22
  -2   7 -12   57.60    6.46
  -2   7 -12   58.88    6.64
   2   7  13   25.11    3.20
   2   7  13   21.04    5.68
   2   7  13   23.17    5.54
   2   7  13   23.27    5.31
   2  -7  13   31.08    4.61
   2  -7  13   26.96    2.98
   2  -7  13   31.63    4.31
  -2   7 -13   25.64    3.90
  -2   7 -13   26.37    4.36
  -2   7 -13   25.06    5.43
  -2  -7 -13   33.00    5.24
  -2  -7 -13   22.78    4.28
   2  -7  14   29.72    3.64
   2  -7  14   32.05    4.67
   2   7  14   17.33    4.28
   2   7  14   25.36    4.26
   2   7  14   21.81    5.72
   2  -7  14   27.11    3.62
  -2  -7 -14   24.69    4.75
  -2  -7 -14   31.66    4.96
  -2   7 -14   28.18    4.67
  -2   7 -14   23.95    5.18
  -2   7 -14   25.48    4.04
   2  -7  15   -0.03    0.95
   2  -7  15    2.01    1.17
   2  -7  15   -0.44    1.16
   2   7  15    0.23    1.66
   2   7  15   -0.01    1.49
   2   7  15    3.69    1.36
  -2  -7 -15   -0.12    1.34
  -2  -7 -15    3.13    1.39
  -2   7 -15    0.56    1.12
  -2   7 -15    0.45    1.30
  -2   7 -15    0.52    1.09
   2   7  16   17.05    4.73
   2  -7  16   23.26    3.71
   2  -7  16   28.28    4.33
   2   7  16   19.83    5.82
  -2  -7 -16   16.98    4.36
  -2   7 -16   18.74    3.56
  -2   7 -16   22.67    3.60
   2  -7  17   28.08    4.74
   2   7  17   26.47    5.52
   2   7  17   24.11    4.96
   2  -7  17   31.01    3.62
  -2   7 -17   33.39    5.16
  -2  -7 -17   29.36    5.28
   2  -7  18    9.10    2.40
   2  -7  18    9.73    2.58
   2   7  18    6.60    3.68
   2   7  18    7.35    2.99
  -2   7 -18   10.32    2.71
  -2  -7 -18    6.73    2.72
   2  -7  19   10.81    2.25
   2  -7  19    9.24    2.72
   2   7  19    6.03    3.47
   2   7  19    9.27    3.08
  -2   7 -19    8.09    2.36
  -2  -7 -19    9.44    2.98
   2  -7  20    3.24    1.47
   2  -7  20    3.79    1.69
   2   7  20    1.51    2.17
   2   7  20    2.86    1.83
  -2   7 -20    2.47    1.50
  -2  -7 -20    3.67    1.81
   2  -7  21   23.64    3.94
   2  -7  21   26.43    3.40
   2   7  21   17.82    4.92
   2   7  21   17.85    3.93
  -2   7 -21   20.85    2.99
  -2   7 -21   21.18    3.20
  -2  -7 -21   18.55    4.06
   2  -7  22    0.39    0.92
   2   7  22    0.13    1.25
   2   7  22    0.07    1.03
   2  -7  22    3.09    0.96
  -2   7 -22    0.04    0.76
  -2   7 -22    0.37    0.79
   2  -7  23   28.95    4.16
   2  -7  23   32.32    3.79
   2   7  23   22.10    5.03
  -2   7 -23   25.12    3.18
  -2   7 -23   23.19    3.55
   2   7  24    0.89    1.28
   2  -7  24    3.33    1.15
   2   8 -23    2.66    1.04
   2  -8 -23    1.49    1.89
   2   8 -22   15.08    2.58
   2  -8 -22   15.51    3.01
   2   8 -22   13.84    2.30
  -2   8  22   13.53    2.97
  -2  -8  22   13.74    2.26
   2   8 -21    1.56    1.09
   2   8 -21    2.98    1.18
   2  -8 -21    1.79    1.40
  -2   8  21    0.84    1.45
  -2   8  21    0.02    1.36
  -2  -8  21    2.07    0.97
   2   8 -20   19.67    2.98
   2  -8 -20   17.88    3.62
   2   8 -20   18.58    3.13
  -2   8  20    1.63    3.18
  -2   8  20   15.99    3.79
  -2  -8  20   17.90    2.68
   2   8 -19    4.20    1.50
   2  -8 -19    2.03    1.28
   2  -8 -19    3.75    2.05
   2   8 -19    6.09    1.67
   2   8 -19    4.22    1.74
  -2  -8  19    3.51    1.52
  -2   8  19    1.74    2.21
  -2   8  19    4.89    2.00
   2   8 -18   22.72    3.82
   2   8 -18   22.76    3.93
   2  -8 -18   22.62    4.67
   2   8 -18   23.46    3.56
  -2  -8  18   24.29    3.51
  -2   8  18   18.25    3.69
  -2   8  18   25.78    4.90
   2   8 -17    6.44    2.08
   2  -8 -17    5.54    1.69
   2  -8 -17    4.89    2.84
   2   8 -17    5.44    1.86
   2   8 -17    6.77    2.05
   2   8 -17    6.55    2.19
  -2   8  17    3.63    2.74
  -2   8  17    5.13    2.85
  -2  -8  17    5.91    1.90
   2  -8 -16    0.95    1.45
   2   8 -16    0.20    1.15
   2   8 -16    0.29    0.92
   2  -8 -16    0.79    0.91
   2   8 -16    1.67    1.22
   2   8 -16    0.34    1.06
  -2   8  16    1.49    1.51
  -2   8  16   -0.08    1.56
  -2  -8  16    2.05    0.95
   2   8 -15   39.25    5.94
   2  -8 -15   42.99    5.19
   2  -8 -15   40.09    7.99
   2   8 -15   46.02    6.31
   2   8 -15   42.78    6.93
   2   8 -15   43.32    6.56
  -2   8  15   38.53    7.43
  -2   8  15   41.11    8.08
  -2  -8  15   48.78    5.66
   2  -8 -14    3.48    1.54
   2   8 -14    3.21    1.84
   2   8 -14    0.62    1.94
   2   8 -14    2.73    1.65
   2   8 -14    4.09    1.85
   2  -8 -14    4.58    2.35
  -2  -8  14    3.53    1.48
  -2   8  14    2.03    1.59
  -2   8  14    5.26    2.24
   2   8 -13   82.51    9.47
   2   8 -13   87.63   10.07
   2  -8 -13   94.56    9.35
   2  -8 -13  102.04   12.44
   2  -8 -13   76.35    9.33
   2   8 -13   92.42   10.78
   2   8 -13   82.20   10.37
  -2  -8  13   94.05    9.51
  -2   8  13   85.58   12.16
  -2   8  13   86.26   12.65
  -2  -8  13   81.65    8.92
   2  -8 -12   70.03   10.03
   2  -8 -12   61.55    7.61
   2  -8 -12   70.13    7.83
   2   8 -12   67.97    8.52
   2   8 -12   72.28    8.81
   2   8 -12   73.07    8.98
   2   8 -12   60.56    8.90
   2   8 -12   63.16    7.50
  -2   8  12   70.00   10.34
  -2   8  12   64.30    9.77
  -2  -8  12   63.96    7.15
   2   8 -11    8.74    3.40
   2  -8 -11   14.15    3.05
   2  -8 -11   14.38    3.78
   2  -8 -11   12.71    2.32
   2   8 -11   16.24    3.29
   2   8 -11   14.14    3.62
   2   8 -11   14.74    3.37
   2   8 -11   14.00    2.84
  -2   8  11   15.60    4.07
  -2   8  11   11.84    4.08
  -2  -8  11   10.58    2.69
   2   8 -10   39.78    6.34
   2   8 -10   31.17    5.57
   2   8 -10   37.31    5.82
   2  -8 -10   34.60    5.27
   2  -8 -10   37.45    5.20
   2  -8 -10   35.08    6.42
   2   8 -10   38.75    4.93
   2   8 -10   37.28    5.66
  -2   8  10   35.95    6.63
  -2   8  10   36.67    6.28
  -2  -8  10   38.63    4.78
   2   8  -9   14.81    3.10
   2   8  -9   14.18    3.59
   2  -8  -9   13.65    2.91
   2  -8  -9   12.85    2.95
   2  -8  -9   14.11    3.26
   2   8  -9   15.39    2.89
   2   8  -9    9.42    3.03
   2   8  -9    9.49    2.94
  -2  -8   9   15.79    2.65
  -2   8   9   12.52    2.56
  -2   8   9   13.04    3.83
   2   8  -8   52.43    6.15
   2   8  -8   45.64    6.32
   2   8  -8   45.92    7.26
   2  -8  -8   45.31    6.20
   2  -8  -8   52.10    5.19
   2  -8  -8   51.58    6.77
   2   8  -8   56.92    6.00
   2   8  -8   60.70    6.93
  -2   8   8   52.64    7.13
  -2   8   8   49.48    7.53
  -2  -8   8   49.84    5.67
   2  -8  -7    7.56    2.54
   2   8  -7   10.46    2.49
   2  -8  -7   11.17    2.32
   2  -8  -7   10.61    2.66
   2   8  -7    9.61    2.37
   2   8  -7    9.97    3.08
   2   8  -7    7.07    2.52
   2   8  -7    9.88    2.15
  -2   8   7   11.36    2.21
  -2   8   7   11.63    2.93
  -2  -8   7    8.42    2.09
   2   8  -6   12.13    2.15
   2   8  -6   10.24    2.45
   2   8  -6   11.08    2.43
   2  -8  -6    8.68    2.29
   2  -8  -6    8.62    2.69
   2  -8  -6    9.84    2.16
   2   8  -6    8.59    2.46
   2   8  -6    9.13    2.93
  -2  -8   6   10.57    2.08
  -2   8   6   13.65    2.84
  -2   8   6   12.48    2.87
   2   8  -5    2.39    1.36
   2  -8  -5    2.77    1.26
   2  -8  -5    2.51    1.45
   2   8  -5    2.57    1.36
   2   8  -5    5.17    1.73
   2   8  -5    1.62    1.04
   2   8  -5    3.73    1.15
   2  -8  -5    2.13    1.14
  -2   8   5    1.84    1.05
  -2   8   5    2.20    1.69
   2   8  -4    0.57    1.16
   2  -8  -4    2.99    1.08
   2  -8  -4    3.51    1.25
   2   8  -4    2.06    1.09
   2   8  -4    1.24    1.00
   2   8  -4    0.54    1.13
   2   8  -4    2.32    1.15
   2  -8  -4    1.47    0.98
  -2   8   4    0.23    1.31
  -2   8   4    3.29    1.82
  -2   8   4    1.43    1.41
   2   8  -3   17.99    2.64
   2   8  -3    9.72    2.47
   2  -8  -3   11.76    2.26
   2  -8  -3   11.58    1.94
   2  -8  -3   12.68    2.11
   2   8  -3    9.70    1.81
   2   8  -3   11.82    1.75
   2   8  -3   13.74    3.25
  -2   8   3   11.73    2.76
  -2   8   3   11.11    2.69
  -2   8   3   13.57    3.80
   2   8  -2  102.46    9.53
   2  -8  -2  102.58    8.29
   2  -8  -2   96.12    8.32
   2   8  -2   90.00    8.27
   2   8  -2   88.47    8.22
   2   8  -2   95.45   10.63
   2   8  -2   99.23    9.00
   2  -8  -2   91.68    7.90
  -2   8   2  100.86    9.55
  -2   8   2   99.81   12.77
  -2   8   2  104.75   10.61
   2   8  -1   34.68    3.71
   2  -8  -1   37.22    4.40
   2  -8  -1   37.50    3.88
   2  -8  -1   34.68    3.69
   2   8  -1   37.59    5.41
   2   8  -1   33.14    4.82
   2   8  -1   37.34    4.33
   2   8  -1   38.24    4.72
  -2  -8   1   34.56    3.02
  -2   8   1   37.23    4.85
  -2   8   1   39.35    4.98
  -2   8   1   36.51    6.61
   2  -8   0   68.37    6.83
   2  -8   0   74.98    6.74
   2  -8   0   73.85    6.20
   2   8   0   70.09    6.74
   2   8   0   69.66    8.32
   2   8   0   61.17    7.34
   2   8   0   66.89    7.25
   2   8   0   59.80    6.92
  -2   8   0   69.66    7.20
  -2   8   0   72.20   10.04
  -2   8   0   79.21    8.19
  -2  -8   0   67.48    5.24
   2   8   1   35.43    5.06
   2   8   1   37.07    4.37
   2  -8   1   37.62    4.53
   2  -8   1   39.92    3.97
   2  -8   1   39.79    4.36
   2   8   1   38.39    5.42
   2   8   1   37.43    4.82
   2   8   1   36.64    4.77
  -2  -8  -1   38.06    3.66
  -2   8  -1   39.76    4.13
  -2   8  -1   35.31    4.62
  -2   8  -1   39.48    7.33
   2  -8   2  213.03   14.64
   2  -8   2  221.72   15.93
   2   8   2  193.58   15.70
   2   8   2  205.91   19.36
   2   8   2  215.30   19.25
   2   8   2  200.91   17.56
   2   8   2  182.40   16.54
   2  -8   2  199.83   15.23
  -2   8  -2  207.91   17.75
  -2   8  -2  199.03   16.86
  -2   8  -2  205.33   21.83
  -2  -8  -2  223.23   15.17
   2   8   3   91.64   10.16
   2  -8   3   95.21    7.10
   2  -8   3   91.36    8.25
   2  -8   3   76.30    7.65
   2  -8   3   96.27    7.82
   2   8   3   93.55    8.86
   2   8   3   86.94    8.03
   2   8   3   79.89    8.64
   2   8   3   88.98    8.15
  -2   8  -3   92.86   11.94
  -2   8  -3   95.89    8.89
  -2   8  -3   93.38    8.84
  -2  -8  -3   99.62    8.02
   2   8   4  279.89   24.97
   2  -8   4  286.43   19.82
   2  -8   4  273.64   19.96
   2  -8   4  280.43   20.07
   2  -8   4  279.06   18.45
   2   8   4  277.53   24.88
   2   8   4  261.04   20.44
   2   8   4  244.18   21.86
   2   8   4  281.56   23.56
  -2   8  -4  284.24   22.49
  -2   8  -4  287.72   27.74
  -2   8  -4  274.84   22.13
  -2  -8  -4  309.13   21.75
   2   8   5   -0.15    1.16
   2  -8   5    0.31    0.63
   2  -8   5    0.21    1.10
   2  -8   5    2.42    1.05
   2  -8   5    0.19    0.56
   2   8   5    2.78    0.85
   2   8   5    0.13    1.15
   2   8   5    1.01    1.16
   2   8   5    3.70    1.08
  -2   8  -5    0.26    0.93
  -2   8  -5   -0.15    0.93
  -2   8  -5   -0.35    1.43
  -2  -8  -5    0.52    0.97
   2   8   6  643.31   57.49
   2   8   6  628.63   53.39
   2  -8   6  680.27   44.53
   2  -8   6  674.56   49.07
   2  -8   6  696.26   50.76
   2  -8   6  697.66   43.62
   2   8   6  685.96   57.07
   2   8   6  702.64   58.43
  -2   8  -6  671.82   51.71
  -2   8  -6  709.26   64.31
  -2   8  -6  681.59   53.02
  -2  -8  -6  821.15   58.13
   2   8   7    1.75    1.75
   2  -8   7    2.95    0.89
   2  -8   7    1.56    1.03
   2  -8   7    1.87    1.14
   2  -8   7    4.72    1.63
   2   8   7    3.69    1.82
   2   8   7    3.36    1.92
   2   8   7   -0.03    1.49
  -2  -8  -7    1.37    1.92
  -2   8  -7    3.35    1.31
  -2   8  -7    1.21    2.04
   2   8   8  790.39   67.93
   2  -8   8  841.18   64.38
   2  -8   8  855.87   62.50
   2   8   8  728.86   64.73
   2   8   8  792.80   68.68
   2   8   8  794.54   66.83
  -2   8  -8  797.58   64.24
  -2   8  -8  790.92   71.90
  -2  -8  -8  938.29   72.87
   2   8   9  196.47   18.92
   2  -8   9  188.04   16.80
   2  -8   9  218.98   18.21
   2  -8   9  203.66   14.97
   2   8   9  193.83   20.15
   2   8   9  169.21   19.71
   2   8   9  188.80   18.83
  -2   8  -9  213.06   21.76
  -2   8  -9  192.98   16.74
  -2   8  -9  188.31   16.43
  -2  -8  -9  228.58   21.16
   2  -8  10   99.29    9.60
   2  -8  10  102.12    9.85
   2  -8  10  100.34    8.41
   2   8  10   76.51    9.44
   2   8  10   96.71   10.00
   2   8  10   87.26   12.11
   2   8  10   89.06   11.17
  -2  -8 -10  109.75   11.87
  -2   8 -10   91.06   12.46
  -2   8 -10   89.93    9.49
  -2   8 -10   90.58    9.65
   2   8  11   32.74    6.68
   2  -8  11   42.05    5.59
   2  -8  11   44.97    4.62
   2  -8  11   49.42    5.82
   2   8  11   35.86    7.24
   2   8  11   39.96    6.33
  -2  -8 -11   38.41    5.86
  -2   8 -11   38.29    5.76
  -2   8 -11   42.53    5.73
  -2   8 -11   36.18    5.36
   2   8  12   26.14    4.89
   2  -8  12   32.86    4.65
   2  -8  12   34.78    4.08
   2  -8  12   34.30    3.97
   2   8  12   23.28    5.68
   2   8  12   34.24    5.73
  -2   8 -12   33.51    4.98
  -2   8 -12   34.70    6.32
  -2  -8 -12   35.33    5.04
   2   8  13    6.94    3.34
   2   8  13    9.21    3.53
   2  -8  13   10.76    2.85
   2  -8  13   11.19    2.97
   2  -8  13   10.18    2.07
   2   8  13    9.30    3.13
  -2   8 -13   10.20    3.39
  -2   8 -13    8.20    2.60
  -2  -8 -13   10.56    2.85
  -2  -8 -13    8.21    2.58
   2   8  14   16.26    4.20
   2  -8  14   22.22    3.89
   2  -8  14   21.23    2.97
   2   8  14   16.89    5.14
  -2   8 -14   22.04    4.55
  -2   8 -14   17.79    3.28
  -2  -8 -14   12.87    3.72
   2  -8  15   36.37    4.77
   2  -8  15   30.08    4.11
   2   8  15   25.97    6.42
   2   8  15   22.37    5.11
  -2   8 -15   27.58    4.24
  -2   8 -15   30.49    5.52
  -2  -8 -15   22.99    4.62
   2  -8  16    5.76    1.91
   2  -8  16    3.11    1.55
   2   8  16    2.97    2.79
   2   8  16    5.38    2.17
  -2  -8 -16    3.91    1.91
  -2   8 -16    6.76    2.01
  -2   8 -16    3.14    1.65
   2   8  17    8.91    4.17
   2   8  17   12.77    3.30
   2  -8  17   14.73    2.88
   2  -8  17   14.27    2.87
  -2   8 -17    9.58    3.08
   2  -8  18   13.18    2.65
   2  -8  18   10.03    2.54
   2   8  18    9.68    4.02
   2   8  18   10.41    3.07
  -2   8 -18   12.70    2.81
   2   8  19    0.05    0.96
   2  -8  19    0.33    0.75
   2  -8  19    0.44    0.75
   2   8  19    0.14    1.17
  -2   8 -19    0.43    0.79
   2  -8  20    1.97    0.88
   2  -8  20   -0.02    1.01
   2   8  20    0.14    1.50
  -2   8 -20    0.19    0.85
  -2   8 -20    2.05    0.94
   2  -8  21    0.32    1.06
   2  -8  21    2.84    0.92
   2   8  21    0.80    1.33
  -2   8 -21    2.28    0.94
  -2   8 -21   -0.05    0.88
   2   8  22    0.09    1.02
   2  -8  22    0.24    0.67
   2  -8  22    0.07    1.02
  -2   8 -22    0.02    0.66
  -2   8 -22    1.60    0.63
   2   9 -21    2.63    1.15
   2  -9 -21    3.97    1.41
   2   9 -21    3.48    1.16
  -2   9  21    3.66    1.46
  -2  -9  21    2.37    1.03
   2  -9 -20    0.39    1.19
   2   9 -20    1.14    0.92
   2   9 -20    0.29    0.88
  -2   9  20    0.26    1.10
  -2   9  20    2.66    1.19
  -2  -9  20    1.66    0.80
   2  -9 -19   -0.13    0.78
   2  -9 -19    1.16    1.37
   2   9 -19    2.63    1.02
   2   9 -19    1.27    1.07
  -2   9  19    1.10    1.38
  -2  -9  19    3.01    0.90
  -2   9  19    0.06    1.30
   2   9 -18    9.33    2.07
   2  -9 -18   12.78    2.89
   2   9 -18   11.03    2.24
   2   9 -18    7.74    2.37
  -2   9  18   10.67    3.29
  -2   9  18   10.55    3.08
  -2  -9  18   10.03    2.14
   2   9 -17   12.08    2.62
   2  -9 -17   12.33    2.17
   2  -9 -17   13.06    3.30
   2   9 -17   10.41    2.32
   2   9 -17    9.56    2.52
  -2   9  17   11.20    3.35
  -2   9  17    8.78    2.39
  -2  -9  17   10.56    1.75
   2   9 -16    4.31    2.01
   2  -9 -16    6.27    1.73
   2  -9 -16    7.32    2.58
   2   9 -16    5.07    1.73
   2   9 -16    5.12    1.78
   2   9 -16    5.89    2.03
  -2   9  16    5.75    2.49
  -2   9  16    5.94    2.72
  -2  -9  16    3.38    1.81
   2   9 -15   59.58    7.58
   2   9 -15   68.27    7.50
   2  -9 -15   64.24    9.09
   2  -9 -15   60.79    7.09
   2   9 -15   59.36    7.48
   2   9 -15   62.92    7.76
  -2  -9  15   65.75    7.02
  -2   9  15   59.17    9.97
  -2   9  15   58.88    9.32
   2   9 -14    6.59    2.23
   2  -9 -14    5.78    2.15
   2  -9 -14    9.12    2.82
   2   9 -14    6.55    2.43
   2   9 -14    6.85    2.40
   2   9 -14    8.25    1.77
  -2  -9  14    5.31    2.14
  -2   9  14    8.68    3.14
  -2   9  14    6.11    2.23
   2   9 -13   26.03    4.42
   2  -9 -13   26.53    4.30
   2  -9 -13   26.17    3.97
   2   9 -13   22.23    3.46
   2   9 -13   21.64    4.48
   2   9 -13   24.27    4.13
  -2   9  13   26.66    5.47
  -2   9  13   24.13    5.78
  -2  -9  13   26.72    3.96
   2   9 -12   28.66    4.57
   2  -9 -12   32.23    6.34
   2  -9 -12   36.32    5.29
   2   9 -12   29.99    5.86
   2   9 -12   28.38    5.48
   2   9 -12   31.92    4.22
  -2   9  12   36.84    7.20
  -2   9  12   31.83    6.42
   2  -9 -11   25.44    4.62
   2   9 -11   28.71    4.70
   2   9 -11   22.02    5.02
   2  -9 -11   27.50    5.53
   2   9 -11   27.74    3.86
   2   9 -11   25.88    4.10
   2   9 -11   24.09    3.66
  -2   9  11   25.01    5.98
  -2   9  11   27.49    5.53
   2   9 -10    4.83    2.15
   2  -9 -10    4.30    2.16
   2  -9 -10    3.92    1.34
   2  -9 -10    4.48    2.02
   2   9 -10    3.07    1.34
   2   9 -10    4.68    1.92
   2   9 -10    0.70    1.21
   2   9 -10    2.93    1.50
  -2   9  10    6.73    2.42
  -2   9  10    3.95    1.58
  -2  -9  10    4.80    1.49
   2   9  -9   18.85    3.25
   2   9  -9   21.45    4.01
   2   9  -9   14.92    3.95
   2  -9  -9   19.41    4.03
   2  -9  -9   17.26    3.95
   2  -9  -9   22.63    3.61
   2   9  -9   22.72    4.11
   2   9  -9   18.06    4.49
  -2  -9   9   20.00    3.50
  -2   9   9   21.36    5.26
  -2   9   9   20.44    3.59
   2   9  -8    0.96    1.74
   2  -9  -8    4.59    1.96
   2  -9  -8    3.55    1.70
   2  -9  -8    4.30    1.93
   2   9  -8    3.91    1.63
   2   9  -8    4.67    2.12
   2   9  -8    1.21    1.82
   2   9  -8    3.00    1.36
  -2   9   8    4.09    2.20
  -2   9   8    5.42    2.18
  -2  -9   8    2.43    1.41
   2   9  -7   12.13    3.39
   2  -9  -7   10.20    1.91
   2  -9  -7    7.52    2.76
   2  -9  -7   13.68    3.05
   2   9  -7    9.01    2.50
   2   9  -7   10.28    2.89
   2   9  -7    9.57    2.69
  -2   9   7   10.42    2.86
  -2   9   7   12.27    3.17
  -2  -9   7    9.75    2.10
   2   9  -6    1.73    1.76
   2   9  -6    3.73    1.21
   2  -9  -6    4.67    1.66
   2  -9  -6    5.30    1.75
   2  -9  -6    4.60    1.99
   2   9  -6    4.65    2.25
   2   9  -6    4.10    1.72
  -2  -9   6    3.75    1.40
  -2   9   6    3.93    2.23
  -2   9   6    2.96    1.99
   2  -9  -5   14.00    2.80
   2   9  -5   11.55    2.96
   2   9  -5   13.26    3.66
   2  -9  -5   12.79    3.40
   2  -9  -5   15.62    2.76
   2   9  -5   14.95    3.10
   2   9  -5   15.79    2.91
  -2   9   5   16.97    3.76
  -2   9   5   15.74    3.14
  -2  -9   5   10.72    2.33
   2  -9  -4   35.01    5.39
   2  -9  -4   37.44    3.94
   2  -9  -4   38.31    3.85
   2   9  -4   40.90    5.15
   2   9  -4   42.19    6.43
   2   9  -4   31.57    4.26
   2   9  -4   37.39    5.17
   2   9  -4   30.97    4.76
  -2   9   4   38.22    5.55
  -2   9   4   40.15    6.24
   2   9  -3   24.91    4.69
   2  -9  -3   25.32    3.15
   2  -9  -3   24.10    3.39
   2  -9  -3   23.15    3.71
   2   9  -3   25.05    3.78
   2   9  -3   20.52    3.33
   2   9  -3   19.56    3.81
   2   9  -3   23.52    3.82
  -2   9   3   24.99    4.20
  -2   9   3   28.31    3.92
   2   9  -2   -0.01    1.22
   2  -9  -2    0.81    0.94
   2  -9  -2    0.09    0.94
   2  -9  -2    0.37    0.84
   2   9  -2    0.03    0.98
   2   9  -2    1.07    0.90
   2   9  -2    2.39    0.88
   2   9  -2    0.83    0.99
  -2   9   2    0.61    1.06
  -2   9   2    0.72    0.90
  -2   9   2    0.49    1.30
   2   9  -1   15.04    2.75
   2   9  -1   13.73    3.03
   2   9  -1   14.54    3.55
   2  -9  -1   16.36    3.14
   2  -9  -1   15.47    2.82
   2  -9  -1   17.75    2.50
   2   9  -1   11.17    2.75
   2   9  -1   11.34    2.98
  -2   9   1   14.66    2.32
  -2   9   1   16.45    3.29
  -2   9   1   16.58    4.09
   2   9   0   11.75    3.06
   2   9   0    9.05    2.51
   2   9   0   11.41    2.84
   2  -9   0   11.53    2.84
   2  -9   0   14.53    2.44
   2  -9   0   12.87    2.13
   2   9   0   10.67    2.79
   2   9   0   13.75    2.60
  -2   9   0   18.65    3.79
  -2   9   0   13.83    2.29
  -2   9   0   13.34    2.84
   2   9   1    8.20    1.97
   2  -9   1    8.75    1.96
   2  -9   1    6.02    2.27
   2  -9   1   10.31    1.85
   2   9   1    9.36    2.23
   2   9   1    5.23    2.39
   2   9   1    8.21    2.01
   2   9   1    7.37    2.29
  -2   9  -1    6.58    2.90
  -2   9  -1    9.78    2.43
  -2   9  -1    7.30    1.60
  -2  -9  -1    9.51    1.80
   2   9   2   -0.14    1.22
   2   9   2    2.50    1.14
   2  -9   2    0.20    1.03
   2  -9   2    0.47    0.94
   2  -9   2    3.57    0.84
   2  -9   2    2.29    0.88
   2   9   2   -0.01    0.77
   2   9   2   -0.15    1.09
   2   9   2    2.25    0.98
  -2   9  -2    0.51    1.12
  -2   9  -2    0.15    1.09
  -2   9  -2   -0.10    1.42
  -2  -9  -2    0.14    0.87
   2   9   3   25.83    4.83
   2   9   3   27.61    3.83
   2  -9   3   27.76    4.40
   2  -9   3   30.01    3.28
   2  -9   3   31.84    4.46
   2   9   3   29.28    5.02
   2   9   3   31.13    4.54
   2   9   3   29.05    4.83
   2  -9   3   30.35    3.81
  -2   9  -3   29.92    5.39
  -2   9  -3   31.98    4.42
  -2   9  -3   29.00    4.47
  -2  -9  -3   27.52    3.70
   2   9   4  258.56   25.07
   2   9   4  242.75   23.81
   2  -9   4  282.99   23.25
   2  -9   4  286.94   21.04
   2  -9   4  288.63   20.03
   2  -9   4  305.10   24.64
   2   9   4  302.80   26.84
   2   9   4  288.36   25.25
   2   9   4  268.17   21.75
  -2   9  -4  275.97   22.25
  -2   9  -4  292.02   28.05
  -2   9  -4  285.04   24.16
  -2  -9  -4  281.13   22.25
   2   9   5   14.70    2.85
   2  -9   5   17.44    2.85
   2  -9   5   18.67    2.22
   2  -9   5   18.54    3.46
   2  -9   5   15.97    3.43
   2   9   5   17.83    4.04
   2   9   5   16.39    3.67
   2   9   5   16.79    4.03
   2   9   5   13.51    2.85
  -2  -9  -5   17.58    3.24
  -2   9  -5   17.01    4.46
  -2   9  -5   21.02    3.30
  -2   9  -5   15.82    3.19
   2   9   6   11.92    2.52
   2  -9   6   13.49    1.95
   2  -9   6   17.37    3.17
   2  -9   6   13.18    2.99
   2   9   6   17.15    3.69
   2   9   6   16.08    3.26
   2   9   6   12.12    3.76
  -2  -9  -6   13.33    3.01
  -2   9  -6   16.66    4.13
  -2   9  -6   13.30    2.77
  -2   9  -6   13.54    2.93
   2   9   7   15.61    3.05
   2   9   7   16.85    4.31
   2  -9   7   22.70    3.05
   2  -9   7   17.79    3.65
   2   9   7   18.91    4.30
   2   9   7   17.75    3.88
  -2   9  -7   22.92    4.66
  -2   9  -7   20.52    3.55
  -2  -9  -7   21.01    2.86
   2   9   8  141.19   16.82
   2  -9   8  195.28   16.85
   2  -9   8  176.55   15.97
   2   9   8  173.92   17.86
   2   9   8  175.28   18.22
   2   9   8  169.34   18.06
  -2  -9  -8  166.08   16.39
  -2   9  -8  180.31   19.53
  -2   9  -8  180.06   16.79
   2   9   9   37.72    6.77
   2   9   9   39.36    6.18
   2  -9   9   44.94    5.47
   2  -9   9   38.47    5.17
   2   9   9   48.91    6.49
   2   9   9   34.35    6.35
  -2   9  -9   44.32    7.20
  -2   9  -9   41.74    5.68
  -2  -9  -9   42.35    5.72
   2   9  10   22.70    4.06
   2   9  10   18.82    5.11
   2  -9  10   22.42    3.35
   2  -9  10   20.98    3.49
   2   9  10   17.05    4.53
   2   9  10   20.61    4.12
  -2  -9 -10   19.35    3.03
  -2   9 -10   19.92    3.75
  -2   9 -10   26.21    5.02
   2  -9  11    0.87    1.21
   2   9  11    0.33    1.69
   2   9  11    0.81    1.36
  -2   9 -11   -0.04    1.56
  -2   9 -11    3.81    1.34
   2   9  12   37.76    6.49
   2  -9  12   53.87    6.64
   2  -9  12   47.28    5.05
   2   9  12   39.15    7.79
  -2   9 -12   51.71    7.81
  -2   9 -12   46.26    6.17
   2  -9  13   12.00    3.03
   2  -9  13   35.98    4.50
   2   9  13   30.00    4.77
   2   9  13   26.22    5.63
  -2   9 -13   33.47    4.38
  -2   9 -13   34.44    5.48
   2   9  14    0.69    1.45
   2   9  14    0.86    1.73
   2  -9  14    3.15    1.23
   2  -9  14    0.27    1.00
  -2   9 -14    2.82    1.18
  -2   9 -14    0.68    1.59
   2  -9  15    0.41    0.61
   2  -9  15   -0.36    0.65
   2   9  15    0.52    0.86
   2   9  15    0.10    0.97
  -2   9 -15   -0.02    0.67
  -2   9 -15    0.55    0.87
   2   9  16   12.31    3.54
   2   9  16   14.04    2.85
   2  -9  16   15.36    2.46
   2  -9  16    0.01    2.07
  -2   9 -16   16.82    2.88
   2  -9  17    5.08    1.36
   2  -9  17   -0.01    1.29
   2   9  17    5.06    1.79
   2   9  17    3.05    2.14
  -2   9 -17    4.29    1.69
   2   9  18    4.91    2.30
   2  -9  18   -0.04    1.56
   2  -9  18   10.14    1.45
  -2   9 -18    0.54    1.38
  -2   9 -18    8.53    1.81
   2   9  19    0.43    1.33
   2  -9  19    0.04    1.23
   2  -9  19    1.07    0.82
  -2   9 -19    0.73    0.86
  -2   9 -19    1.97    0.93
   2   9  20    0.30    1.29
   2  -9  20    0.09    1.04
   2  -9  20    2.77    0.92
  -2   9 -20    2.81    1.00
   2  -9  21    7.58    1.36
   2   9  21    3.51    2.03
  -2   9 -21    7.51    1.41
   2 -10 -19    2.28    0.83
   2  10 -19    0.00    0.58
   2  10 -19   -0.02    0.67
  -2  10  19   -0.11    0.99
  -2 -10  19    0.14    0.58
   2  10 -18    6.40    1.41
   2 -10 -18   -0.04    1.39
   2  10 -18    2.22    1.60
   2 -10 -18    7.90    1.89
  -2  10  18    3.75    1.81
  -2  10  18    0.25    2.09
  -2 -10  18    5.08    1.25
   2  10 -17   -0.10    0.98
   2 -10 -17    3.14    1.52
   2 -10 -17    0.19    0.91
   2  10 -17    1.84    0.96
   2  10 -17    2.86    1.05
  -2  10  17    0.50    1.36
  -2  10  17    2.66    1.48
  -2 -10  17    2.52    0.93
   2 -10 -16    1.24    1.31
   2  10 -16    1.20    1.00
   2 -10 -16    2.19    0.91
   2  10 -16    0.28    0.88
   2  10 -16    0.82    0.88
  -2  10  16    1.14    1.28
  -2  10  16    0.78    1.47
  -2 -10  16    0.28    0.90
   2  10 -15   23.47    3.98
   2 -10 -15   28.67    5.37
   2 -10 -15   32.13    4.07
   2  10 -15   26.35    4.18
   2  10 -15   21.81    4.00
  -2  10  15   22.30    4.86
  -2  10  15   29.51    5.58
  -2 -10  15   29.32    3.85
   2  10 -14    3.49    1.68
   2 -10 -14    4.69    2.24
   2 -10 -14    5.68    1.56
   2  10 -14    3.02    1.67
   2  10 -14    3.39    1.64
   2  10 -14   -0.29    1.43
  -2 -10  14    4.38    1.57
  -2  10  14    4.58    2.29
  -2  10  14    3.05    1.96
   2  10 -13   -0.20    2.00
   2 -10 -13   11.67    3.23
   2 -10 -13   10.04    2.34
   2  10 -13   10.31    2.44
   2  10 -13   10.73    2.48
   2  10 -13    7.98    2.54
  -2  10  13    9.81    2.92
  -2  10  13    8.67    3.49
  -2 -10  13    9.32    1.68
   2  10 -12   45.88    6.29
   2  10 -12   45.43    6.64
   2 -10 -12   53.85    6.71
   2 -10 -12   58.84    7.99
   2  10 -12   46.83    6.81
  -2 -10  12   52.53    5.47
  -2  10  12   44.93    6.25
  -2  10  12   48.08    8.86
   2  10 -11    5.30    1.99
   2  10 -11    3.94    1.98
   2 -10 -11    4.24    2.37
   2 -10 -11    5.34    1.88
   2  10 -11   -0.09    1.61
   2  10 -11    4.21    2.04
  -2  10  11    6.23    2.28
  -2  10  11    5.12    2.72
   2  10 -10   53.51    6.79
   2  10 -10   48.44    6.97
   2  10 -10   49.68    7.27
   2 -10 -10   55.59    8.13
   2 -10 -10   55.67    6.76
   2  10 -10   57.20    7.70
  -2  10  10   46.42    8.02
  -2  10  10   51.44    9.53
   2  10  -9    9.12    2.61
   2  10  -9    6.49    2.46
   2 -10  -9   11.32    3.29
   2 -10  -9    9.20    2.83
   2  10  -9    9.25    2.75
   2  10  -9    7.92    3.02
  -2  10   9    8.76    3.13
  -2  10   9    7.85    2.93
   2  10  -8   35.12    5.37
   2 -10  -8   47.88    6.85
   2 -10  -8   42.16    5.69
   2  10  -8   37.90    5.59
   2  10  -8   39.55    5.67
   2  10  -8   31.84    5.49
  -2  10   8   36.91    6.54
  -2  10   8   36.70    7.81
   2  10  -7   16.16    4.03
   2  10  -7   16.81    3.50
   2  10  -7   14.74    3.25
   2 -10  -7   15.17    4.00
   2 -10  -7   16.87    2.57
   2  10  -7   12.35    3.45
  -2  10   7   15.55    3.85
  -2  10   7   16.61    4.86
   2  10  -6   52.02    6.92
   2  10  -6   61.80    8.68
   2 -10  -6   63.21    6.86
   2 -10  -6   61.27    7.32
   2 -10  -6   66.32    8.23
   2  10  -6   60.01    7.65
   2  10  -6   59.08    7.13
  -2 -10   6   51.05    6.26
  -2  10   6   71.51    9.97
  -2  10   6   62.93    8.46
   2  10  -5   26.70    3.60
   2  10  -5   22.87    5.65
   2 -10  -5   31.45    4.49
   2 -10  -5   29.15    5.15
   2 -10  -5   30.85    4.86
   2  10  -5   27.32    4.53
   2  10  -5   24.14    4.31
  -2 -10   5   23.55    3.72
  -2  10   5   27.31    5.12
  -2  10   5   48.06    6.55
   2  10  -4    5.45    3.20
   2  10  -4   10.88    2.43
   2 -10  -4    6.00    2.64
   2 -10  -4    9.56    2.44
   2 -10  -4    8.32    2.22
   2  10  -4    8.43    2.37
   2  10  -4    5.05    1.76
  -2  10   4    7.15    2.59
  -2  10   4    8.98    3.07
  -2 -10   4    6.28    1.91
   2  10  -3  126.42   13.42
   2  10  -3  129.65   12.98
   2 -10  -3  145.82   12.58
   2 -10  -3  134.27   13.97
   2 -10  -3  133.79   13.41
   2  10  -3  131.65   16.12
   2  10  -3  126.18   12.58
  -2  10   3  146.29   16.11
  -2  10   3  137.85   13.99
   2  10  -2    2.22    1.79
   2 -10  -2    2.71    1.12
   2 -10  -2    2.92    1.77
   2 -10  -2    2.10    1.36
   2  10  -2    2.62    1.77
   2  10  -2    3.71    2.07
   2  10  -2    2.28    1.47
   2  10  -2    3.61    1.12
  -2  10   2    3.99    1.28
  -2  10   2    5.96    1.81
   2  10  -1   11.95    2.85
   2  10  -1   13.70    2.55
   2 -10  -1   12.75    2.05
   2 -10  -1   12.03    2.24
   2 -10  -1   11.70    2.26
   2  10  -1   10.68    2.76
   2  10  -1    9.66    2.91
   2  10  -1   11.11    3.69
  -2  10   1   12.59    3.11
  -2  10   1   12.06    3.19
   2 -10   0   43.48    4.52
   2  10   0   38.05    4.52
   2  10   0   41.14    5.09
   2  10   0   44.99    5.61
   2 -10   0   42.76    5.38
   2 -10   0   43.03    5.41
   2  10   0   35.15    5.37
   2  10   0   40.51    6.36
  -2  10   0   43.94    5.96
  -2  10   0   44.58    6.31
  -2  10   0   42.30    6.28
   2  10   1   37.97    5.02
   2  10   1   35.25    5.25
   2  10   1   37.38    5.34
   2 -10   1   41.79    5.22
   2 -10   1   44.05    5.12
   2 -10   1   32.35    4.37
   2 -10   1   40.66    4.24
   2  10   1   35.22    5.70
   2  10   1   41.21    6.16
  -2  10  -1   41.55    5.52
  -2  10  -1   43.05    6.07
  -2  10  -1   42.44    6.34
   2  10   2   23.93    4.66
   2 -10   2   33.83    4.59
   2 -10   2   31.19    4.73
   2 -10   2   38.02    4.78
   2 -10   2   35.78    3.83
   2  10   2   29.92    5.35
   2  10   2   34.39    5.12
   2  10   2   31.84    4.38
   2  10   2   29.55    5.64
  -2  10  -2   35.49    4.94
  -2  10  -2   36.10    5.73
  -2  10  -2   33.88    5.30
   2  10   3   19.62    3.96
   2  10   3   21.75    3.90
   2 -10   3   20.63    3.52
   2 -10   3   24.73    3.65
   2 -10   3   18.90    3.39
   2 -10   3   19.82    2.69
   2  10   3   18.95    4.01
   2  10   3   19.44    3.49
   2  10   3   20.57    3.44
  -2  10  -3   19.03    3.61
  -2  10  -3   20.64    4.35
  -2  10  -3   24.06    3.83
   2  10   4   47.27    7.03
   2  10   4   47.32    7.01
   2  10   4   53.17    6.31
   2 -10   4   48.92    6.46
   2 -10   4   54.15    4.80
   2  10   4   51.98    7.85
   2  10   4   54.48    6.96
   2 -10   4   54.29    6.31
  -2  10  -4   56.64    6.79
  -2  10  -4   52.05    6.51
  -2  10  -4   58.56    7.91
  -2 -10  -4   58.44    6.92
   2 -10   5    8.18    2.23
   2  10   5    5.64    2.19
   2 -10   5   10.09    2.32
   2 -10   5    7.96    1.52
   2  10   5    8.02    2.90
   2  10   5    9.71    2.59
   2  10   5    5.20    2.54
   2  10   5    8.52    2.87
  -2  10  -5    7.33    2.33
  -2  10  -5    6.49    2.19
  -2  10  -5    8.88    2.88
  -2 -10  -5    6.48    1.77
   2  10   6  340.07   33.37
   2 -10   6  393.14   31.82
   2  10   6  350.62   31.96
   2  10   6  337.64   31.08
  -2  10  -6  351.66   31.12
  -2  10  -6  330.35   30.01
  -2  10  -6  366.38   34.73
   2 -10   7    6.73    1.97
   2  10   7    5.84    2.38
   2  10   7    4.71    2.40
   2  10   7    4.39    2.08
  -2  10  -7    4.51    2.03
  -2  10  -7    4.35    2.60
   2  10   8   53.97    7.95
   2  10   8   48.88    6.77
   2 -10   8   50.70    5.16
   2  10   8   50.54    7.48
  -2  10  -8   51.50    5.62
  -2  10  -8   53.25    7.76
   2 -10   9   35.53    4.31
   2  10   9   27.18    5.67
   2  10   9   28.81    5.19
   2  10   9   26.77    4.62
  -2  10  -9   29.00    4.63
  -2  10  -9   28.99    5.71
   2  10  10   20.73    3.94
   2 -10  10   25.16    3.57
   2  10  10    2.96    3.61
   2  10  10   21.26    5.02
  -2  10 -10   26.64    4.80
  -2  10 -10   32.79    4.09
   2 -10  11   34.50    4.33
   2  10  11   28.63    5.77
   2  10  11   25.20    4.92
  -2  10 -11   32.23    4.69
  -2  10 -11   36.49    5.96
   2  10  12   12.84    3.33
   2 -10  12   19.54    3.26
   2  10  12   15.31    4.36
  -2  10 -12   19.12    4.08
  -2  10 -12   16.49    3.23
   2 -10  13   19.06    3.06
   2  10  13   13.56    3.38
   2  10  13   11.75    3.84
  -2  10 -13   18.65    3.63
  -2  10 -13   16.70    3.16
   2 -10  14    4.30    1.49
   2  10  14    3.07    1.96
   2  10  14    2.42    1.72
  -2  10 -14    3.37    1.81
  -2  10 -14    3.79    1.45
   2  10  15    0.02    0.85
   2 -10  15    0.25    0.60
  -2  10 -15   -0.09    0.62
  -2  10 -15    0.42    0.74
   2  10  16    5.54    2.83
   2 -10  16    9.57    1.87
  -2  10 -16    9.45    2.35
   2 -10  17    1.59    0.71
   2  10  17   -0.03    1.08
  -2  10 -17    0.01    0.99
   2  10  18   19.72    4.04
   2 -10  18   25.13    2.80
  -2  10 -18   18.76    3.18
   2 -10  19    1.88    0.66
   2  10  19   -0.02    0.97
  -2  10 -19    0.08    0.71
   2 -11 -17   10.15    2.27
   2  11 -17   11.06    1.94
  -2  11  17    9.68    2.46
  -2 -11  17   12.22    1.86
   2 -11 -16   -0.20    1.09
   2  11 -16    1.83    0.90
   2 -11 -16    2.02    0.80
  -2 -11  16    1.76    0.85
  -2  11  16    0.51    1.19
  -2  11  16    0.26    1.21
   2 -11 -15    2.51    0.86
   2 -11 -15    0.90    1.13
   2  11 -15    0.87    0.98
   2  11 -15    0.35    0.89
  -2  11  15    0.49    1.24
  -2 -11  15    0.56    0.85
  -2  11  15    3.90    1.27
   2  11 -14    2.16    0.99
   2 -11 -14    1.39    1.21
   2 -11 -14    0.60    0.97
   2  11 -14    0.04    1.01
   2  11 -14    2.69    1.05
  -2  11  14    0.56    1.41
  -2 -11  14    2.14    0.98
  -2  11  14    0.82    1.34
   2  11 -13    9.70    2.42
   2  11 -13   12.07    2.38
   2 -11 -13   12.26    2.44
   2 -11 -13   10.62    2.73
   2  11 -13    8.09    2.43
  -2  11  13   10.30    3.01
  -2  11  13    8.37    3.15
  -2 -11  13   12.58    2.20
   2  11 -12    0.36    1.13
   2 -11 -12    1.14    1.19
   2 -11 -12    3.71    1.27
   2  11 -12    1.07    1.11
   2  11 -12    0.17    1.15
  -2  11  12    0.74    1.41
  -2 -11  12    1.76    0.71
  -2  11  12    0.93    1.53
   2  11 -11    6.51    1.84
   2 -11 -11    6.03    2.16
   2 -11 -11    6.41    1.92
   2  11 -11    3.75    1.99
   2  11 -11    5.51    2.08
  -2 -11  11    4.13    1.69
  -2  11  11    6.70    2.49
  -2  11  11    6.25    2.60
   2  11 -10    9.61    2.87
   2 -11 -10   11.79    2.68
   2 -11 -10   11.99    2.82
   2  11 -10    8.89    2.92
   2  11 -10   12.06    2.76
  -2 -11  10   10.94    2.25
  -2  11  10    9.25    3.28
  -2  11  10    8.37    3.42
   2  11  -9    0.45    1.10
   2  11  -9    0.46    1.15
   2 -11  -9    2.72    1.21
   2 -11  -9    0.95    1.12
   2  11  -9    0.69    1.31
   2  11  -9    0.39    1.22
  -2  11   9    1.52    1.50
  -2  11   9    0.54    1.39
   2  11  -8   21.71    4.20
   2  11  -8   26.57    4.58
   2 -11  -8   23.60    4.36
   2 -11  -8   26.05    3.99
   2  11  -8   23.26    4.12
   2  11  -8   20.65    4.38
  -2  11   8   22.14    5.16
  -2  11   8   21.85    4.78
   2  11  -7   31.65    4.70
   2 -11  -7   36.41    4.69
   2 -11  -7   31.74    4.92
   2  11  -7   30.64    4.90
   2  11  -7   25.46    4.49
   2  11  -7   29.77    5.64
  -2  11   7   31.30    6.09
  -2  11   7   31.02    5.29
   2  11  -6    3.77    1.74
   2 -11  -6    3.98    1.54
   2 -11  -6    1.93    1.36
   2  11  -6    2.32    1.40
   2  11  -6    2.83    1.49
   2  11  -6    0.80    1.43
  -2  11   6    0.23    1.92
  -2  11   6    0.33    1.62
   2  11  -5   20.05    4.25
   2  11  -5   15.51    3.58
   2 -11  -5   17.88    3.71
   2 -11  -5   19.96    3.34
   2  11  -5   16.91    2.63
   2  11  -5   16.60    3.71
  -2  11   5   17.89    4.07
  -2  11   5   19.09    4.32
   2 -11  -4    0.33    1.01
   2  11  -4    0.27    1.21
   2 -11  -4    3.01    1.11
   2  11  -4    0.09    1.13
   2  11  -4    0.10    1.10
   2  11  -4    0.88    1.44
  -2  11   4    2.91    1.22
  -2  11   4   -0.16    1.43
   2  11  -3   -0.30    1.09
   2  11  -3    0.05    0.90
   2  11  -3   -0.38    0.81
   2 -11  -3    0.54    0.52
   2 -11  -3    0.13    0.82
   2  11  -3    0.38    0.57
  -2  11   3    0.75    1.00
  -2  11   3    0.40    0.67
   2  11  -2    6.43    2.41
   2  11  -2    7.79    2.34
   2 -11  -2    6.53    2.17
   2 -11  -2    9.63    2.04
   2  11  -2    5.19    3.15
   2  11  -2    8.26    2.30
  -2  11   2    8.43    2.58
  -2  11   2    8.02    2.71
   2  11  -1   14.17    3.55
   2  11  -1    9.20    2.60
   2  11  -1   12.68    2.77
   2 -11  -1   11.64    2.42
   2 -11  -1    9.81    2.14
   2  11  -1    8.39    2.73
  -2  11   1   11.90    3.16
  -2  11   1   10.00    2.88
   2  11   0    2.25    2.15
   2  11   0    1.42    1.71
   2 -11   0    3.72    1.15
   2 -11   0    3.98    1.41
   2  11   0    1.65    1.55
   2  11   0    2.85    1.49
  -2  11   0    2.76    1.83
  -2  11   0    1.67    1.68
   2  11   1    4.50    2.11
   2  11   1    4.96    2.08
   2  11   1    5.15    2.27
   2 -11   1    8.03    1.56
   2 -11   1    5.65    1.90
   2  11   1    5.38    2.77
  -2  11  -1    5.32    2.28
  -2  11  -1    6.25    2.20
   2  11   2    0.63    1.38
   2 -11   2    2.21    1.27
   2 -11   2    4.76    1.15
   2  11   2    1.13    1.89
   2  11   2    2.56    1.41
   2  11   2    0.36    1.50
  -2  11  -2    0.38    1.43
  -2  11  -2   -0.02    1.59
  -2  11  -2    4.85    1.56
   2 -11   3    0.24    0.91
   2 -11   3    0.59    0.68
   2  11   3    0.00    1.13
   2  11   3    0.46    0.99
   2  11   3    0.00    0.99
   2  11   3    1.06    1.37
  -2  11  -3    0.12    1.19
  -2  11  -3    4.98    1.16
  -2  11  -3    0.00    1.06
   2  11   4    0.10    1.50
   2  11   4    4.35    1.59
   2 -11   4    3.95    1.42
   2 -11   4    3.21    1.05
   2  11   4    1.97    2.08
   2  11   4    1.96    1.83
  -2  11  -4    3.93    1.68
  -2  11  -4    4.36    1.86
  -2  11  -4    2.86    1.64
   2  11   5    3.32    2.03
   2 -11   5    4.14    1.54
   2  11   5    6.14    1.74
   2  11   5    2.27    1.67
  -2  11  -5    4.11    1.84
  -2  11  -5    3.99    1.79
  -2  11  -5    4.76    2.11
   2  11   6   20.07    3.88
   2  11   6   23.80    4.78
   2 -11   6   24.48    3.45
   2  11   6   20.94    4.50
  -2  11  -6   24.12    4.16
  -2  11  -6   26.44    4.84
  -2  11  -6   22.20    4.04
   2  11   7    0.33    0.87
   2 -11   7   -0.29    0.61
   2  11   7    0.08    0.80
   2  11   7    0.14    0.72
  -2  11  -7    0.27    0.74
  -2  11  -7    0.67    0.85
   2  11   8   -0.36    1.10
   2 -11   8    1.93    0.77
   2  11   8    0.16    1.03
   2  11   8    0.24    0.98
  -2  11  -8    0.25    0.95
  -2  11  -8    0.08    1.13
   2  11   9    0.56    1.79
   2 -11   9    2.02    1.24
   2  11   9    4.39    1.72
   2  11   9    2.79    1.48
  -2  11  -9    3.37    1.73
  -2  11  -9    3.15    1.59
   2  11  10   -0.12    1.10
   2 -11  10    1.26    0.62
   2  11  10    0.05    1.34
  -2  11 -10   -0.19    1.10
  -2  11 -10    4.25    1.25
   2 -11  11    1.88    0.77
   2  11  11    0.15    1.01
   2  11  11   -0.18    0.91
  -2  11 -11    0.39    0.87
  -2  11 -11   -0.33    1.00
   2  11  12    0.54    1.43
   2 -11  12    1.05    1.02
  -2  11 -12    0.09    1.14
  -2  11 -12    4.35    1.22
   2  11  13   -0.01    1.34
   2 -11  13    1.91    1.04
  -2  11 -13    2.14    1.05
  -2  11 -13    2.37    1.25
   2  11  14    0.34    1.41
   2 -11  14    2.30    1.01
  -2  11 -14    2.26    1.13
  -2  11 -14    3.68    1.27
   2 -11  15   -0.04    0.41
   2  11  15    0.06    0.60
  -2  11 -15    0.19    0.55
   2 -11  16    2.40    0.76
   2  11  16    0.28    1.14
  -2  11 -16    0.90    0.97
   2 -11  17    0.22    0.34
  -2 -11 -17    0.00    0.39
  -2  11 -17   -0.26    0.44
   2  12 -14    9.06    1.88
   2 -12 -14   13.11    1.95
   2 -12 -14   11.06    2.11
  -2 -12  14   12.19    1.81
  -2  12  14   10.12    3.08
  -2  12  14    9.31    2.46
   2 -12 -13   12.41    2.45
   2 -12 -13   12.85    2.09
   2  12 -13    9.79    1.95
   2  12 -13   10.77    2.14
  -2 -12  13   14.23    1.92
  -2  12  13   11.79    2.69
  -2  12  13   10.98    3.00
   2 -12 -12   16.65    2.82
   2 -12 -12   17.19    2.66
   2  12 -12   15.18    2.41
   2  12 -12    6.79    2.15
   2  12 -12   17.68    2.55
  -2  12  12   15.14    3.42
  -2  12  12   12.42    3.05
  -2 -12  12   17.65    2.36
   2  12 -11    9.19    2.48
   2 -12 -11   15.93    2.70
   2 -12 -11   12.79    2.57
   2  12 -11   13.16    2.57
   2  12 -11   14.54    2.58
  -2 -12  11   17.56    2.44
  -2  12  11   14.97    3.46
  -2  12  11   14.12    2.94
   2  12 -10    5.73    1.60
   2 -12 -10    4.86    1.55
   2 -12 -10    4.44    1.60
   2  12 -10    5.23    1.65
   2  12 -10    0.41    1.72
  -2  12  10    3.85    2.13
  -2  12  10    4.09    1.93
  -2 -12  10    6.00    1.38
   2 -12  -9    3.53    1.47
   2 -12  -9    3.45    1.35
   2  12  -9    0.10    1.51
   2  12  -9    4.85    1.49
   2  12  -9    2.70    1.34
  -2 -12   9    2.83    1.19
  -2  12   9    4.52    1.79
  -2  12   9    3.28    2.00
   2 -12  -8    5.10    1.64
   2 -12  -8    4.23    1.51
   2  12  -8    4.75    1.70
   2  12  -8    1.12    1.69
   2  12  -8    3.53    1.35
  -2  12   8    5.25    2.11
  -2  12   8    5.87    1.88
  -2 -12   8    4.97    1.37
   2  12  -7    7.18    2.42
   2  12  -7    6.83    2.02
   2 -12  -7    7.36    2.16
   2  12  -7    7.46    2.06
   2  12  -7    4.24    2.05
   2 -12  -7    9.18    1.95
  -2  12   7    6.75    1.91
  -2  12   7    9.47    2.45
   2 -12  -6    0.22    0.93
   2 -12  -6    0.94    0.64
   2  12  -6    0.92    0.96
   2  12  -6    1.03    0.84
   2  12  -6    1.19    0.99
   2  12  -6   -0.08    1.04
  -2  12   6    0.87    1.16
  -2  12   6    1.25    1.24
   2 -12  -5    2.05    1.22
   2 -12  -5    2.84    1.10
   2  12  -5    1.60    1.57
   2  12  -5    2.47    1.30
   2  12  -5    2.49    1.30
   2  12  -5    0.51    1.38
  -2  12   5    1.67    1.68
  -2  12   5    1.57    1.51
   2  12  -4    3.38    1.37
   2  12  -4    2.15    1.46
   2  12  -4    0.59    1.33
   2  12  -4    1.92    1.84
   2 -12  -4    2.84    1.33
   2 -12  -4    2.52    1.19
  -2  12   4    4.62    1.78
  -2  12   4    3.97    1.68
   2  12  -3   22.87    3.96
   2  12  -3   29.16    3.90
   2 -12  -3   23.99    3.81
   2 -12  -3   27.06    3.44
   2  12  -3   23.24    4.04
   2  12  -3   26.99    5.17
  -2  12   3   28.43    4.56
  -2  12   3   29.16    5.08
   2 -12  -2    0.28    0.66
   2  12  -2    0.16    0.93
   2 -12  -2    0.21    0.76
   2  12  -2   -0.04    0.83
   2  12  -2   -0.06    0.89
   2  12  -2    0.37    1.16
  -2  12   2    2.99    0.98
  -2  12   2    0.23    1.04
   2  12  -1   11.86    3.54
   2 -12  -1   14.84    1.98
   2 -12  -1   17.35    2.21
   2  12  -1    0.34    2.61
   2  12  -1   10.83    2.93
   2  12  -1   15.46    2.59
  -2  12   1   13.46    3.18
  -2  12   1   12.79    3.31
   2 -12   0    8.11    1.72
   2 -12   0    8.11    1.59
   2  12   0    7.67    1.98
   2  12   0    0.31    1.95
   2  12   0    5.04    2.07
   2  12   0    3.75    2.70
  -2  12   0    7.97    2.19
  -2  12   0    8.28    2.34
   2  12   1   12.42    2.45
   2  12   1    3.31    2.46
   2 -12   1   13.86    2.38
   2 -12   1   12.02    1.85
   2  12   1    9.94    2.80
   2  12   1   12.38    3.44
  -2  12  -1   11.52    2.81
  -2  12  -1   13.05    2.81
   2  12   2    0.88    1.42
   2  12   2    0.28    1.17
   2 -12   2    3.02    0.94
   2 -12   2    1.75    0.78
   2  12   2    0.00    1.02
   2  12   2    0.04    1.13
  -2  12  -2    0.21    1.09
  -2  12  -2    0.57    1.08
   2  12   3    0.36    1.29
   2 -12   3    2.94    1.06
   2  12   3    0.90    1.12
   2  12   3    0.65    1.57
  -2  12  -3    2.86    1.22
  -2  12  -3    0.24    1.26
   2 -12   4    3.69    1.25
   2  12   4    3.16    1.40
   2  12   4    1.51    1.52
   2  12   4    3.30    1.99
  -2  12  -4    3.01    1.47
  -2  12  -4    3.28    1.54
   2  12   5    0.03    0.89
   2 -12   5    0.21    0.73
   2  12   5    0.24    1.16
   2  12   5    3.09    0.84
  -2 -12  -5    0.22    0.71
  -2  12  -5   -0.01    0.90
  -2  12  -5   -0.41    0.97
   2  12   6    0.70    1.13
   2 -12   6    0.46    0.75
   2  12   6    0.22    0.93
   2  12   6   -0.10    0.88
  -2  12  -6    0.08    0.99
  -2  12  -6    0.36    0.88
  -2 -12  -6    1.84    0.70
   2  12   7    4.60    1.43
   2 -12   7    3.96    1.14
   2  12   7    1.50    1.46
   2  12   7    0.25    1.74
  -2  12  -7    4.18    1.41
  -2  12  -7    0.00    1.57
   2 -12   8    1.15    0.99
   2  12   8    0.05    1.32
   2  12   8    0.41    1.49
  -2  12  -8    2.90    1.28
  -2  12  -8    2.40    1.34
  -2 -12  -8    3.53    1.03
   2  12   9    9.51    2.44
   2  12   9    1.11    2.60
   2 -12   9   15.29    2.26
  -2  12  -9   16.00    2.40
  -2  12  -9   -0.14    2.19
  -2 -12  -9   16.35    2.11
   2 -12  10    1.14    0.93
   2  12  10    0.16    1.18
  -2 -12 -10    2.13    0.90
  -2  12 -10    2.57    1.15
  -2  12 -10   -0.12    1.10
   2  12  11    8.03    2.37
   2 -12  11   14.77    1.89
  -2  12 -11    0.15    2.01
  -2  12 -11   10.14    2.11
  -2 -12 -11   14.67    1.99
   2  12  12   -0.02    0.85
   2 -12  12    2.10    0.63
  -2  12 -12    0.25    0.67
  -2  12 -12    0.12    0.78
  -2 -12 -12   -0.02    0.69
   2 -12  13    6.29    1.17
  -2  12 -13   -0.13    1.24
  -2 -12 -13    5.68    1.24
   2 -13 -10    0.09    0.83
   2 -13 -10    0.34    0.79
  -2  13  10    3.03    1.31
  -2  13  10    4.39    1.15
   2 -13  -9    0.18    0.87
   2 -13  -9    3.07    0.77
   2  13  -9    0.60    0.82
  -2  13   9    0.46    0.98
  -2  13   9    0.80    1.02
  -2 -13   9    0.04    0.65
   2  13  -8    0.46    0.70
   2 -13  -8    1.10    0.60
   2 -13  -8    0.38    0.59
   2  13  -8    0.07    0.61
  -2 -13   8    0.10    0.52
  -2  13   8   -0.29    0.80
  -2  13   8    0.26    0.85
   2 -13  -7    2.21    0.95
   2 -13  -7    0.62    0.92
   2  13  -7    2.33    1.05
   2  13  -7    1.28    1.14
  -2  13   7    2.84    1.26
  -2  13   7    2.43    1.34
  -2 -13   7    1.63    0.84
   2 -13  -6    7.23    1.38
   2 -13  -6    6.64    1.36
   2  13  -6   -0.08    1.42
   2  13  -6    7.03    1.88
  -2  13   6    6.20    1.74
  -2 -13   6    1.57    1.14
  -2  13   6    7.84    1.86
   2 -13  -5    1.12    0.97
   2 -13  -5    2.52    0.96
   2  13  -5    3.47    1.34
   2  13  -5    2.36    1.24
  -2 -13   5   -0.03    0.87
  -2  13   5    1.65    1.29
  -2  13   5    4.69    1.32
   2  13  -4    0.12    0.86
   2  13  -4    0.16    1.16
   2 -13  -4    1.80    0.75
   2 -13  -4    0.06    0.72
   2  13  -4    2.28    0.96
   2  13  -4   -0.02    0.93
  -2  13   4    0.24    1.02
  -2  13   4    2.55    1.10
   2  13  -3    2.61    1.70
   2 -13  -3    3.22    1.04
   2 -13  -3    1.98    0.97
   2  13  -3   -0.07    1.31
   2  13  -3    0.03    1.29
   2  13  -3    4.23    1.26
  -2  13   3    4.85    1.44
  -2  13   3    4.02    1.49
   2  13  -2    5.71    1.97
   2 -13  -2    6.99    1.27
   2 -13  -2    5.46    1.20
   2  13  -2    0.12    1.55
   2  13  -2    0.28    1.54
   2  13  -2    5.66    1.84
  -2  13   2    4.38    1.62
  -2  13   2    3.71    1.73
   2  13  -1    2.06    1.05
   2 -13  -1    1.17    0.86
   2 -13  -1    3.10    1.00
   2  13  -1    0.79    1.34
   2  13  -1    0.06    1.23
   2  13  -1    0.45    0.96
  -2  13   1    1.03    1.13
  -2  13   1    0.58    1.07
   2  13   0    0.03    1.51
   2 -13   0    5.97    1.34
   2 -13   0    4.71    1.14
   2  13   0    4.83    1.49
   2  13   0    3.62    2.02
  -2  13   0    3.51    1.68
  -2  13   0    4.80    1.57
   2  13   1    0.83    1.49
   2 -13   1    2.00    0.84
   2  13   1    2.11    1.02
   2  13   1    0.02    1.09
  -2  13  -1    0.78    1.05
  -2  13  -1    2.45    1.21
   2  13   2    4.28    1.95
   2 -13   2    4.21    1.11
   2  13   2    2.76    1.57
   2  13   2    0.17    1.47
  -2  13  -2    3.90    1.40
  -2  13  -2    3.44    1.59
   2  13   3    0.37    1.01
   2  13   3   -0.05    0.79
   2 -13   3   -0.29    0.58
  -2  13  -3    0.15    0.82
  -2  13  -3    2.15    0.78
   2 -13   4   -0.13    0.39
   2  13   4   -0.28    0.70
   2  13   4   -0.03    0.54
  -2  13  -4    0.21    0.52
   2  13   5    0.03    1.57
   2  13   5    0.00    1.31
   2 -13   5    4.42    0.95
  -2  13  -5    3.73    1.28
   2 -13   6    2.44    0.77
   2  13   6   -0.09    1.24
  -2  13  -6   -0.01    1.05
   2 -13   7    0.54    0.61
  -2  13  -7    0.23    0.70
   2 -13   8    0.46    0.56
  -2  13  -8    0.24    0.70
   2 -13   9    1.71    0.79
   3   0 -27    1.09    0.96
   3   0 -26    0.08    0.63
   3   0 -25    6.76    2.42
   3   0 -24    0.59    0.66
   3   0 -24    0.03    0.58
  -3   0  24   -0.30    0.56
   3   0 -23   21.98    3.54
   3   0 -23   20.45    3.17
   3   0 -23   21.13    4.28
   3   0 -22    0.14    0.95
   3   0 -22    0.09    1.41
   3   0 -22    4.40    1.24
   3   0 -21   77.84    7.43
   3   0 -21   77.54    8.28
   3   0 -21   80.44    9.67
  -3   0  21   57.45    8.54
   3   0 -20    0.07    1.87
   3   0 -20    3.34    1.36
   3   0 -20    2.37    1.40
  -3   0  20    3.06    1.74
   3   0 -19  134.03   15.76
   3   0 -19  160.61   14.24
   3   0 -19  160.17   16.47
   3   0 -19  161.94   14.94
  -3   0  19  141.95   13.98
  -3   0  19  135.29   16.48
   3   0 -18    2.59    1.38
   3   0 -18    3.25    1.16
   3   0 -18    0.58    1.56
   3   0 -18    0.27    1.29
  -3   0  18    0.01    1.17
  -3   0  18    2.54    1.37
   3   0 -17   31.79    5.37
   3   0 -17   34.79    5.92
   3   0 -17   38.10    3.89
   3   0 -17   34.67    4.84
  -3   0  17   35.36    4.66
  -3   0  17   34.02    5.41
   3   0 -16   -0.10    0.64
   3   0 -16    0.01    0.55
   3   0 -16    0.06    0.68
   3   0 -16   -0.08    0.57
  -3   0  16    0.19    0.45
  -3   0  16    0.04    0.66
   3   0 -15   53.34    7.12
   3   0 -15   63.91    6.69
   3   0 -15   57.12    7.93
   3   0 -15   61.04    6.86
  -3   0  15   62.37    5.85
   3   0 -14    0.38    0.46
   3   0 -14   -0.12    0.52
   3   0 -14    0.21    0.45
   3   0 -14   -0.74    0.49
  -3   0  14    0.08    0.34
   3   0 -13   64.60    5.25
   3   0 -13   49.01    6.27
   3   0 -13   41.07    5.94
   3   0 -13   55.04    5.02
  -3   0  13   57.57    4.70
   3   0 -12    0.24    1.06
   3   0 -12   10.06    1.33
   3   0 -12    2.19    1.41
   3   0 -12    1.90    1.28
   3   0 -11    1.12    1.19
   3   0 -11    2.92    1.25
   3   0 -11    3.66    1.51
   3   0 -11    1.19    1.38
   3   0 -11    7.63    1.02
  -3   0  11    3.76    0.90
   3   0 -10   -0.13    0.59
   3   0 -10    0.57    0.46
   3   0 -10    0.02    0.63
   3   0 -10    0.22    0.52
   3   0 -10    0.73    0.57
  -3   0  10    0.10    0.37
   3   0  -9  371.40   24.14
   3   0  -9  397.11   25.43
   3   0  -9  392.71   26.06
   3   0  -9  382.40   24.48
  -3   0   9  384.20   19.68
   3   0  -8    0.03    0.22
   3   0  -8   -0.05    0.49
   3   0  -8    0.08    0.62
   3   0  -8    0.07    0.49
   3   0  -8    1.10    0.35
  -3   0   8   -0.13    0.38
   3   0  -7  541.18   21.60
   3   0  -7  477.25   29.15
   3   0  -7  497.56   31.28
   3   0  -7  490.40   30.33
  -3   0   7  516.11   23.93
   3   0  -6   -0.12    0.45
   3   0  -6   -0.17    0.21
  -3   0   6    0.33    0.22
   3   0  -5 1288.34   49.66
   3   0  -5 1203.07   63.26
  -3   0   5 1101.75   43.02
   3   0  -4    0.12    0.34
   3   0  -4    0.04    0.35
  -3   0   4    0.64    0.24
   3   0  -3 1060.43   42.82
   3   0  -3 1024.10   52.99
  -3   0   3  918.04   33.31
   3   0  -2    0.00    0.25
   3   0  -2    0.10    0.51
  -3   0   2    0.70    0.18
   3   0  -1    2.91    0.55
   3   0  -1    1.81    0.29
   3   0  -1    2.15    0.68
   3   0   0    0.00    0.41
   3   0   0    0.33    0.50
   3   0   0    0.53    0.19
   3   0   1  663.24   29.72
   3   0   1  695.20   35.62
   3   0   1  585.21   22.72
   3   0   1  615.85   14.72
   3   0   2    0.05    0.17
   3   0   2    0.13    0.26
   3   0   3 1451.15   65.96
   3   0   3 1326.77   53.53
   3   0   4    0.98    0.34
   3   0   4    0.15    0.59
   3   0   5    2.12    0.96
   3   0   5    4.30    0.59
   3   0   6    3.15    0.86
   3   0   6    1.04    0.50
   3   0   7  306.25   16.81
   3   0   7  316.92   18.13
   3   0   7  365.25   20.30
   3   0   8    1.96    0.53
   3   0   8    0.50    0.69
   3   0   8   -0.01    0.48
   3   0   8    0.08    0.49
   3   0   8    0.07    0.64
   3   0   9  924.90   53.14
   3   0   9  916.38   65.55
   3   0   9  992.78   57.20
   3   0   9 1017.75   56.72
   3   0   9  939.18   55.71
   3   0  10    0.10    0.53
   3   0  10    0.01    0.86
   3   0  10    1.46    0.68
   3   0  10    1.90    0.54
   3   0  10    0.12    0.48
  -3   0 -10   -0.17    0.71
   3   0  11   37.73    5.29
   3   0  11   43.70    3.31
   3   0  11   46.66    4.95
   3   0  11   41.98    3.94
   3   0  11   43.77    3.69
  -3   0 -11   41.50    4.36
   3   0  12    0.21    0.80
   3   0  12    2.71    1.13
   3   0  12    1.40    0.64
   3   0  12    0.15    1.03
   3   0  12    1.52    0.66
  -3   0 -12    0.08    0.83
   3   0  13  321.48   29.38
   3   0  13  330.63   22.09
   3   0  13  335.19   21.83
   3   0  13  320.14   26.47
   3   0  13  328.98   22.61
  -3   0 -13  331.92   24.77
   3   0  14    0.00    1.07
   3   0  14   -0.32    1.15
   3   0  14    2.04    0.71
   3   0  14    0.46    0.66
  -3   0 -14    0.36    0.58
  -3   0 -14   -0.08    0.89
   3   0  15  692.81   48.36
   3   0  15  666.88   61.70
   3   0  15  672.64   45.15
   3   0  15  698.10   59.62
   3   0  15  718.39   50.53
  -3   0 -15  692.98   41.97
  -3   0 -15  669.84   50.66
   3   0  16   -0.04    1.50
   3   0  16   -0.27    1.43
   3   0  16    3.23    0.82
   3   0  16   -0.12    1.00
   3   0  16   -0.06    0.95
  -3   0 -16    2.44    1.03
  -3   0 -16    0.10    0.77
   3   0  17    1.61    0.90
   3   0  17    3.58    1.72
   3   0  17    0.63    1.19
   3   0  17    4.58    1.79
   3   0  17    1.02    1.22
  -3   0 -17    2.42    1.22
  -3   0 -17    1.18    0.96
   3   0  18    0.23    0.79
   3   0  18   -0.03    1.38
   3   0  18    0.13    0.90
   3   0  18    3.04    0.95
  -3   0 -18    0.29    0.99
   3   0  19   56.61    8.65
   3   0  19   55.06    7.12
   3   0  19   54.91    5.42
   3   0  19   53.60    5.71
   3   0  19   55.51    6.86
  -3   0 -19   50.46    7.18
   3   0  20    0.56    0.94
   3   0  20    0.00    0.42
   3   0  20    0.02    0.79
   3   0  20   -0.09    0.60
   3   0  21    0.79    2.75
   3   0  21   14.23    3.43
   3   0  21   11.33    2.46
   3   0  21    9.59    2.75
   3   0  22    0.00    0.61
   3   0  22   -0.15    0.88
   3   0  22    0.04    0.75
   3   0  22   -0.11    0.66
   3   0  23   56.80    5.60
   3   0  23   59.35    8.87
  -3   0 -23   54.96    6.16
   3   0  24   -0.03    0.61
   3   0  24    0.48    0.62
   3   0  24   -0.47    0.79
  -3   0 -24    0.04    0.51
   3   0  25   20.23    3.41
   3   0  25   26.50    4.57
   3   0  26   -0.18    0.67
   3   0  26   -0.01    0.54
   3   1 -27    8.91    2.23
   3  -1 -26    5.06    1.90
   3   1 -26    7.39    2.21
   3   1 -25    1.99    1.06
   3  -1 -25    2.97    1.57
   3   1 -25    2.68    1.21
   3  -1 -24    6.54    2.10
   3   1 -24    6.43    1.77
   3   1 -24    6.21    1.65
   3   1 -24    4.86    2.06
  -3   1  24   -0.22    1.65
   3  -1 -23    4.99    1.51
   3  -1 -23    4.05    1.81
   3  -1 -23    2.95    1.86
   3   1 -23    4.63    1.33
   3   1 -23    3.47    1.75
   3   1 -23    3.50    1.56
  -3   1  23    0.28    1.45
   3  -1 -22    3.94    1.87
   3   1 -22    4.97    2.28
   3  -1 -22    0.10    1.73
   3  -1 -22    5.46    1.48
   3  -1 -22    4.03    1.96
   3   1 -22    4.73    1.54
   3   1 -22    3.45    1.20
   3   1 -21    0.62    1.26
   3  -1 -21    2.24    1.19
   3  -1 -21    0.71    1.11
   3  -1 -21    2.78    1.37
   3  -1 -21    1.63    1.43
   3   1 -21    2.34    1.11
   3   1 -21    0.32    0.99
   3  -1 -20  135.21   12.38
   3  -1 -20  140.38   14.71
   3  -1 -20  132.48   12.66
   3   1 -20  138.90   12.71
   3   1 -20  119.68   14.34
   3   1 -20  138.49   13.53
   3   1 -19   10.02    3.52
   3  -1 -19   15.31    2.88
   3  -1 -19   11.96    3.55
   3  -1 -19   12.16    3.60
   3  -1 -19   14.33    2.80
   3   1 -19   13.56    3.36
   3   1 -19   14.96    2.77
   3   1 -19   15.07    2.99
  -3   1  19   11.47    3.30
  -3   1  19   11.74    3.72
  -3  -1  19   11.57    2.99
   3   1 -18  203.63   20.12
   3  -1 -18  175.03   18.49
   3  -1 -18  217.83   18.35
   3  -1 -18  209.21   21.06
   3  -1 -18  213.11   18.39
   3   1 -18  173.23   18.96
   3   1 -18  219.81   18.57
   3   1 -18  211.74   19.00
  -3   1  18  199.85   19.20
  -3   1  18  182.26   19.67
  -3  -1  18  200.71   17.51
   3   1 -17    0.33    1.27
   3  -1 -17    5.12    1.23
   3  -1 -17    0.35    1.45
   3  -1 -17    0.30    1.12
   3  -1 -17    3.65    1.35
   3   1 -17    0.15    1.57
   3   1 -17   -0.22    1.43
   3   1 -17    0.45    1.33
  -3   1  17    3.39    1.17
  -3   1  17    0.52    1.58
  -3  -1  17    3.17    1.19
   3   1 -16    4.20    2.29
   3  -1 -16    4.45    1.29
   3  -1 -16    3.54    1.94
   3  -1 -16    3.54    2.27
   3  -1 -16    5.38    1.84
   3   1 -16    5.03    1.73
   3   1 -16    6.87    2.10
   3   1 -16    5.45    1.90
  -3   1  16    4.39    1.53
  -3   1  16    3.42    2.03
  -3  -1  16    3.96    1.47
   3  -1 -15   27.42    3.09
   3  -1 -15   21.45    4.17
   3  -1 -15   26.26    5.24
   3  -1 -15   27.43    3.89
   3   1 -15   22.94    3.42
   3   1 -15   25.54    3.00
   3   1 -15   24.17    4.30
   3   1 -15   29.06    4.15
  -3   1  15   24.80    3.38
  -3   1  15   22.22    4.33
  -3  -1  15   25.75    3.32
   3   1 -14  131.15   11.42
   3  -1 -14  156.01   12.43
   3  -1 -14  114.00   11.94
   3  -1 -14  136.04   11.42
   3  -1 -14  129.16   13.23
   3   1 -14  112.06   11.81
   3   1 -14  123.94   12.62
   3   1 -14  125.50   11.90
  -3   1  14  134.65   10.36
  -3   1  14  131.44   12.98
  -3  -1  14  138.67   10.53
   3   1 -13   14.57    2.80
   3  -1 -13   16.81    2.63
   3  -1 -13   15.62    2.85
   3  -1 -13   16.61    3.28
   3  -1 -13   15.40    2.75
   3   1 -13   13.45    2.32
   3   1 -13   15.79    2.55
   3   1 -13   16.19    2.86
   3   1 -13   14.16    2.02
   3   1 -13   15.02    3.12
  -3   1  13   14.21    2.00
  -3   1  13   17.16    3.04
  -3  -1  13   15.47    2.16
   3  -1 -12  125.47   12.01
   3   1 -12  146.32   11.39
   3  -1 -12  126.85   10.97
   3  -1 -12  147.30   11.15
   3  -1 -12  117.84   10.69
   3   1 -12  120.98   10.82
   3   1 -12  125.74    9.35
   3   1 -12  137.47   10.73
   3   1 -12  132.30   11.67
   3   1 -12  122.41   10.92
  -3   1  12  139.54    8.98
  -3  -1  12  130.57    9.12
   3   1 -11   10.99    1.85
   3  -1 -11   11.02    1.98
   3  -1 -11   12.14    2.02
   3  -1 -11    9.87    2.23
   3  -1 -11    9.99    2.02
   3   1 -11   11.13    2.08
   3   1 -11   10.60    1.94
   3   1 -11   10.03    1.66
   3   1 -11    9.96    2.00
   3   1 -11    8.95    2.03
  -3   1  11   10.08    1.35
  -3  -1  11   10.37    1.55
   3   1 -10   98.18    7.72
   3  -1 -10  113.81    5.33
   3  -1 -10  112.81    8.56
   3  -1 -10  104.22    8.81
   3  -1 -10  100.08    8.82
   3  -1 -10  103.31    7.66
   3   1 -10   93.24    8.02
   3   1 -10  103.47    8.11
   3   1 -10  107.86    8.64
   3   1 -10  103.64    8.67
   3   1 -10  107.29    8.64
  -3   1  10  103.31    6.11
  -3  -1  10  103.75    6.89
   3   1  -9  838.72   52.62
   3   1  -9  796.07   48.60
   3  -1  -9  785.72   50.30
   3  -1  -9  872.07   36.60
   3  -1  -9  822.97   50.97
   3  -1  -9  830.03   53.37
   3  -1  -9  837.64   53.24
   3   1  -9  801.82   49.85
   3   1  -9  864.78   55.33
   3   1  -9  862.32   53.98
   3   1  -9  815.00   51.71
  -3   1   9  864.34   42.15
  -3  -1   9  818.60   41.81
   3   1  -8  659.79   42.25
   3  -1  -8  688.50   29.33
   3  -1  -8  660.41   40.43
   3  -1  -8  657.44   40.91
   3  -1  -8  686.72   42.51
   3  -1  -8  690.72   41.58
   3   1  -8  619.52   37.55
   3   1  -8  683.36   42.79
   3   1  -8  678.71   42.05
  -3   1   8  702.23   32.33
  -3  -1   8  616.88   30.23
   3   1  -7  206.07   13.03
   3  -1  -7  222.09   14.87
   3  -1  -7  206.25   13.68
   3  -1  -7  218.79   10.19
   3  -1  -7  225.34   15.25
   3  -1  -7  221.39   14.06
   3   1  -7  212.63   14.52
   3   1  -7  242.78    8.52
   3   1  -7  215.12   13.38
  -3   1   7  210.16    9.95
  -3  -1   7  209.43   10.55
   3  -1  -6 1199.90   73.87
   3  -1  -6 1425.75   60.88
   3   1  -6 1355.81   72.77
   3   1  -6 1605.93   54.51
  -3   1   6 1381.14   56.09
  -3  -1   6 1432.39   63.38
   3   1  -5  583.69   31.23
   3  -1  -5  485.40   27.35
   3  -1  -5  556.54   24.05
   3   1  -5  619.80   22.57
  -3   1   5  513.32   19.88
  -3  -1   5  526.14   22.95
   3  -1  -4   59.36    4.97
   3  -1  -4   55.02    3.17
   3   1  -4   52.10    3.76
   3   1  -4   64.96    3.05
  -3   1   4   53.77    2.25
  -3  -1   4   53.06    2.81
   3  -1  -3  270.49   15.55
   3  -1  -3  267.94   12.16
   3   1  -3  245.77   10.88
   3   1  -3  287.07   15.57
   3   1  -3  297.95   12.11
  -3   1   3  260.07    8.85
   3   1  -2  503.36   21.03
   3  -1  -2  482.84   25.19
   3  -1  -2  538.38   23.06
   3   1  -2  547.88   26.70
   3   1  -2  585.95   23.60
  -3   1   2  486.64   14.07
   3   1  -1   91.16    4.36
   3  -1  -1  101.53    6.54
   3  -1  -1  112.24    5.83
   3   1  -1   89.32    5.14
   3   1  -1  106.74    5.13
  -3   1   1   87.61    2.47
   3   1   0  135.20    6.74
   3  -1   0  122.94    7.23
   3  -1   0  144.89    7.49
   3  -1   0  122.92    4.32
   3   1   0  131.72    7.40
   3   1   0  135.36    6.59
   3  -1   1   30.81    3.01
   3  -1   1   25.65    2.20
   3  -1   1   23.32    1.03
   3   1   1   24.72    2.10
   3   1   1   23.02    1.84
   3   1   1   22.77    1.62
   3  -1   2   72.33    2.33
   3  -1   2   84.12    5.08
   3  -1   2   86.07    3.31
   3   1   2  100.06    5.25
   3   1   2   85.20    4.68
   3  -1   3  229.85    8.32
   3  -1   3  241.33   12.11
   3  -1   3  207.10    6.80
   3   1   3  272.15   13.25
   3   1   3  223.05   11.16
   3   1   4    5.91    1.04
   3  -1   4    7.60    0.55
   3  -1   4    6.56    0.76
   3  -1   4    5.76    1.36
   3   1   4    8.78    1.54
   3  -1   5   83.88    3.80
   3  -1   5   96.36    6.17
   3  -1   5   91.10    4.38
   3   1   5   81.10    5.27
   3   1   5   96.59    6.39
   3   1   6  637.30   34.87
   3  -1   6  621.49   26.75
   3  -1   6  629.32   33.21
   3  -1   6  654.52   28.53
   3  -1   6  647.00   33.34
   3   1   6  573.80   31.13
   3   1   6  681.84   34.40
   3   1   7    1.72    0.53
   3  -1   7    1.53    0.61
   3  -1   7    0.06    0.49
   3  -1   7    0.17    0.48
   3  -1   7    0.83    0.37
   3  -1   7    1.05    0.43
   3   1   7    1.14    0.72
   3   1   7    0.54    0.73
   3  -1   8    0.23    0.71
   3  -1   8    0.68    0.36
   3  -1   8    1.24    0.58
   3  -1   8    1.13    0.47
   3  -1   8   -0.13    0.59
   3   1   8   -0.21    0.79
   3   1   8    1.07    0.40
   3   1   8    1.35    0.60
   3   1   8    2.49    0.74
   3   1   9   64.82    5.43
   3  -1   9   77.95    5.40
   3  -1   9   72.05    6.86
   3  -1   9   70.45    4.94
   3  -1   9   85.70    5.95
   3  -1   9   81.47    5.78
   3   1   9   68.58    7.02
   3   1   9   69.18    5.22
   3   1   9   66.01    5.12
   3   1   9   69.82    5.11
   3  -1  10   10.02    2.45
   3   1  10   13.15    2.08
   3  -1  10   10.98    1.58
   3  -1  10   12.20    1.63
   3  -1  10   11.83    1.82
   3  -1  10   15.54    1.89
   3  -1  10   12.33    1.89
   3   1  10   13.90    2.53
   3   1  10   12.10    1.72
   3   1  10   13.28    2.05
   3   1  10   10.81    2.16
  -3   1 -10   12.99    2.65
  -3  -1 -10   12.39    1.86
   3  -1  11  233.59   14.31
   3   1  11  236.67   15.93
   3  -1  11  226.83   14.21
   3  -1  11  241.20   19.61
   3  -1  11  256.98   16.59
   3  -1  11  242.51   16.63
   3   1  11  228.22   19.00
   3   1  11  240.68   15.55
   3   1  11  250.94   16.49
   3   1  11  208.12   16.83
   3   1  11  223.12   18.39
  -3   1 -11  230.95   17.43
  -3  -1 -11  236.97   15.69
   3  -1  12   16.87    2.22
   3   1  12   19.64    2.40
   3  -1  12   17.97    3.49
   3  -1  12   19.22    2.25
   3  -1  12   19.52    2.71
   3  -1  12   17.56    2.64
   3   1  12   18.40    3.64
   3   1  12   18.27    2.43
   3   1  12   13.05    2.91
   3   1  12   12.39    3.19
   3   1  12   16.35    2.33
  -3   1 -12   17.87    2.82
  -3  -1 -12   18.47    2.27
  -3  -1 -12   18.59    2.46
   3   1  13   23.65    3.31
   3  -1  13   25.70    2.84
   3  -1  13   26.80    2.90
   3  -1  13   27.19    4.63
   3  -1  13   25.23    2.78
   3  -1  13   24.74    3.99
   3   1  13   25.32    4.74
   3   1  13   26.65    3.13
   3   1  13   19.15    3.41
   3   1  13   24.98    4.04
   3   1  13   25.32    2.68
  -3   1 -13   27.87    3.94
  -3  -1 -13   27.32    2.93
  -3  -1 -13   24.92    3.26
   3   1  14   27.83    4.42
   3   1  14   34.49    3.59
   3   1  14   26.43    5.20
   3   1  14   30.19    3.73
   3   1  14   32.18    3.99
   3   1  14   31.54    4.82
   3  -1  14   30.45    3.46
   3  -1  14   31.32    5.20
   3  -1  14   32.19    3.71
   3  -1  14   29.14    3.30
   3  -1  14   27.43    4.30
  -3  -1 -14   33.81    2.77
  -3  -1 -14   29.59    3.87
  -3   1 -14   29.69    4.41
   3   1  15   53.68    8.56
   3   1  15   49.72    7.43
   3   1  15   53.72    7.83
   3   1  15   60.41    6.18
   3   1  15   55.30    6.04
   3  -1  15   55.85    5.01
   3   1  15   52.05    4.44
   3  -1  15   62.50    8.20
   3  -1  15   55.07    5.43
  -3  -1 -15   49.65    6.00
  -3  -1 -15   54.40    4.99
  -3   1 -15   54.96    4.58
  -3   1 -15   58.22    5.85
   3   1  16  298.74   31.58
   3   1  16  322.01   30.62
   3   1  16  288.63   29.28
   3   1  16  314.21   23.67
   3   1  16  308.87   25.78
   3  -1  16  317.69   30.81
   3   1  16  305.25   22.04
   3  -1  16  294.57   21.08
   3  -1  16  304.08   22.56
   3  -1  16  312.24   23.93
  -3  -1 -16  304.10   24.19
  -3  -1 -16  302.42   20.79
  -3   1 -16  314.25   20.60
  -3   1 -16  295.49   25.47
   3   1  17    6.54    2.90
   3   1  17    6.31    1.48
   3   1  17    3.22    2.41
   3   1  17    8.13    2.69
   3   1  17    6.56    1.93
   3   1  17    4.77    1.90
   3  -1  17    7.87    1.92
   3  -1  17    4.63    1.36
   3  -1  17    3.81    1.80
   3  -1  17    5.49    1.73
  -3  -1 -17    3.87    1.83
  -3  -1 -17    6.18    1.71
  -3   1 -17    6.46    2.14
   3   1  18   26.09    5.31
   3   1  18   25.67    3.33
   3   1  18   19.96    4.82
   3   1  18   21.55    3.64
   3   1  18   28.21    4.14
   3   1  18   21.15    5.61
   3  -1  18   28.60    5.52
   3  -1  18   21.00    3.72
   3  -1  18   25.87    3.76
  -3  -1 -18   25.76    3.34
  -3   1 -18   24.40    4.13
   3   1  19   32.48    3.78
   3   1  19   27.86    6.89
   3   1  19   27.49    5.50
   3   1  19   33.18    5.12
   3   1  19   33.56    4.96
   3   1  19   30.39    6.38
   3  -1  19   34.90    4.67
   3  -1  19   34.37    4.91
   3  -1  19   29.23    4.50
  -3   1 -19   28.07    4.97
   3   1  20    8.08    3.26
   3   1  20    6.99    1.79
   3   1  20    6.67    2.37
   3   1  20    6.81    2.49
   3   1  20    3.47    2.66
   3  -1  20    8.83    2.98
   3  -1  20    6.89    2.23
   3  -1  20    7.47    2.12
   3   1  21    0.05    1.11
   3   1  21    0.48    1.21
   3   1  21    0.85    1.53
   3   1  21    0.05    1.34
   3  -1  21    0.02    1.46
   3  -1  21    0.27    0.99
   3  -1  21    4.40    1.06
  -3  -1 -21   -0.16    0.95
   3   1  22   36.74    5.14
   3   1  22   18.82    4.85
   3   1  22   39.19    6.75
   3  -1  22   38.59    4.06
   3  -1  22   37.18    7.14
   3  -1  22   37.12    5.05
   3   1  23    0.37    2.22
   3   1  23    7.40    2.13
   3   1  23    0.40    1.89
   3   1  23   11.60    2.69
   3  -1  23    6.04    1.96
   3  -1  23    6.34    2.73
   3  -1  23    6.54    2.00
  -3   1 -23    6.40    1.77
   3   1  24   14.48    2.59
   3   1  24   -0.47    2.49
   3   1  24   15.77    3.23
   3   1  24    0.26    2.61
   3  -1  24   19.34    3.33
   3  -1  24   14.87    2.25
   3  -1  24    0.09    2.31
  -3   1 -24   13.34    2.31
   3   1  25    0.24    1.37
   3   1  25    1.79    1.31
   3   1  25    1.52    1.05
   3  -1  25    0.45    0.97
   3  -1  25    2.66    1.08
   3  -1  25    1.76    1.38
  -3   1 -25    0.35    0.94
   3   1  26    5.60    1.73
   3   1  26   10.66    2.40
   3  -1  26    5.04    1.87
   3  -1  26   11.19    2.71
   3   2 -27    0.15    0.92
  -3   2  27    0.81    0.87
   3   2 -26    2.83    1.19
   3   2 -26    4.66    1.65
   3  -2 -26    1.47    1.37
   3   2 -25   25.48    3.30
   3   2 -25   24.10    3.43
   3  -2 -25   21.69    3.84
   3   2 -24    0.72    0.89
   3   2 -24    2.78    1.26
   3   2 -24    3.86    1.30
   3  -2 -24   -0.12    1.15
   3  -2 -24    0.58    1.17
  -3   2  24    0.30    1.08
   3   2 -23   26.52    3.66
   3   2 -23   22.05    4.38
   3   2 -23   28.51    4.12
   3  -2 -23   25.05    4.64
   3   2 -22    7.26    2.23
   3   2 -22    5.23    1.96
   3   2 -22    6.47    1.70
   3  -2 -22   -0.08    2.06
   3  -2 -22    4.87    2.53
  -3   2  22    6.62    1.93
   3   2 -21   34.88    4.47
   3   2 -21   33.33    5.17
   3  -2 -21   29.07    4.35
   3   2 -21   32.25    5.54
   3  -2 -21   37.56    5.46
   3  -2 -21   29.69    5.61
  -3   2  21   33.43    5.04
   3   2 -20    0.80    1.23
   3   2 -20    1.15    1.01
   3   2 -20    1.01    1.15
   3  -2 -20    0.56    1.24
   3  -2 -20    1.45    1.02
   3  -2 -20    0.56    1.33
   3  -2 -20    0.84    0.95
   3   2 -19   54.80    8.35
   3   2 -19   66.53    7.11
   3   2 -19   73.92    8.04
   3   2 -19   61.93    8.18
   3  -2 -19   57.86    8.60
   3  -2 -19   66.66    8.16
   3  -2 -19   55.66    8.59
   3  -2 -19   65.83    7.02
   3  -2 -19   67.07    7.55
  -3  -2  19   59.50    6.11
   3   2 -18    7.03    2.87
   3   2 -18    8.52    2.04
   3   2 -18    8.49    2.77
   3   2 -18   10.06    2.39
   3  -2 -18    7.38    2.23
   3  -2 -18   10.04    2.86
   3  -2 -18    8.99    2.41
   3  -2 -18    9.29    2.97
   3  -2 -18   10.83    2.52
  -3  -2  18   10.40    2.30
  -3   2  18   10.46    3.01
   3   2 -17  201.80   20.22
   3   2 -17  230.65   19.69
   3   2 -17  236.36   21.38
   3  -2 -17  199.29   21.49
   3   2 -17  223.41   21.74
   3  -2 -17  247.09   21.91
   3  -2 -17  237.45   19.71
   3  -2 -17  232.09   20.41
   3  -2 -17  225.44   22.30
  -3  -2  17  231.72   18.94
  -3   2  17  231.79   21.83
   3   2 -16  122.65   11.94
   3   2 -16   99.36   10.22
   3   2 -16  118.45   10.84
   3   2 -16  119.49   11.51
   3   2 -16  121.01   12.84
   3  -2 -16   98.67   10.63
   3  -2 -16  122.53   12.29
   3  -2 -16  129.55   11.80
   3  -2 -16  109.89   11.00
   3  -2 -16  108.33   12.74
  -3  -2  16  125.80   11.03
  -3   2  16  119.87   11.44
   3   2 -15  480.12   36.69
   3   2 -15  490.75   37.50
   3   2 -15  499.48   42.74
   3   2 -15  487.90   39.77
   3   2 -15  428.61   37.81
   3  -2 -15  470.20   41.05
   3   2 -15  496.85   38.99
   3  -2 -15  478.71   38.98
   3  -2 -15  426.98   38.28
   3  -2 -15  520.20   37.29
   3  -2 -15  458.07   37.59
  -3  -2  15  480.55   34.36
  -3   2  15  465.35   36.14
   3   2 -14   48.05    6.27
   3   2 -14   51.26    5.74
   3   2 -14   49.13    5.61
   3   2 -14   52.66    6.86
   3   2 -14   51.07    4.88
   3   2 -14   51.27    5.86
   3  -2 -14   50.10    5.92
   3  -2 -14   42.20    5.12
   3  -2 -14   54.58    5.80
   3  -2 -14   47.78    5.55
   3  -2 -14   43.31    6.48
  -3  -2  14   49.07    5.05
  -3   2  14   45.36    5.11
   3   2 -13   54.20    6.57
   3   2 -13   62.80    6.52
   3   2 -13   60.67    7.13
   3   2 -13   63.89    6.63
   3   2 -13   66.40    7.02
   3   2 -13   49.74    5.91
   3  -2 -13   56.07    6.79
   3  -2 -13   59.08    7.25
   3  -2 -13   64.22    6.42
   3  -2 -13   62.49    5.37
   3  -2 -13   58.16    6.11
  -3  -2  13   61.88    4.82
  -3   2  13   60.19    5.01
   3   2 -12  155.57   12.33
   3   2 -12  136.70   11.03
   3   2 -12  157.15   12.38
   3   2 -12  167.55   13.52
   3   2 -12  156.19   12.60
   3  -2 -12  139.77   11.64
   3   2 -12  159.50   13.60
   3  -2 -12  159.76   12.71
   3  -2 -12  162.40   12.44
   3  -2 -12  146.64   13.40
   3  -2 -12  145.56   12.29
  -3  -2  12  160.21   11.13
  -3   2  12  144.61   10.06
   3   2 -11    0.38    0.76
   3   2 -11    0.21    0.70
   3   2 -11    0.83    0.64
   3   2 -11    0.05    0.73
   3   2 -11    0.71    0.71
   3  -2 -11    0.06    0.76
   3   2 -11    0.07    0.76
   3  -2 -11    0.57    0.63
   3  -2 -11    0.76    0.54
   3  -2 -11   -0.21    0.65
   3  -2 -11    1.85    0.65
   3  -2 -11    0.19    0.50
  -3  -2  11    0.45    0.57
  -3   2  11    0.12    0.45
   3   2 -10  332.99   23.95
   3   2 -10  316.72   22.47
   3   2 -10  318.08   22.63
   3   2 -10  335.21   24.37
   3   2 -10  321.87   21.54
   3   2 -10  292.77   20.38
   3  -2 -10  327.27   22.74
   3  -2 -10  312.23   22.48
   3  -2 -10  312.53   22.75
   3  -2 -10  321.34   22.03
   3  -2 -10  335.19   24.28
   3  -2 -10  350.13   17.44
  -3  -2  10  337.19   19.39
  -3   2  10  316.16   17.44
   3   2  -9   72.95    6.45
   3   2  -9   61.17    5.55
   3   2  -9   72.20    5.68
   3   2  -9   69.90    5.70
   3   2  -9   72.18    6.45
   3   2  -9   66.64    5.96
   3  -2  -9   69.31    5.54
   3  -2  -9   64.47    5.75
   3  -2  -9   69.72    6.51
   3  -2  -9   72.19    4.43
   3  -2  -9   74.00    6.12
  -3  -2   9   67.49    4.74
  -3   2   9   70.11    4.17
   3   2  -8  234.72   15.52
   3   2  -8  278.33   19.52
   3   2  -8  253.59   16.78
   3   2  -8  274.94   17.82
   3   2  -8  278.69   18.58
   3  -2  -8  258.92   17.23
   3  -2  -8  285.73   14.46
   3   2  -8  259.60   17.85
   3  -2  -8  268.48   17.29
   3  -2  -8  284.00   18.02
   3  -2  -8  277.77   19.02
  -3  -2   8  279.71   15.16
  -3   2   8  284.12   13.24
   3   2  -7   70.59    5.34
   3   2  -7   83.72    6.68
   3   2  -7   77.36    5.91
   3  -2  -7   70.52    5.64
   3   2  -7   77.85    5.98
   3  -2  -7   65.54    5.45
   3  -2  -7   72.23    6.06
   3  -2  -7   84.60    6.18
   3  -2  -7   82.19    4.72
  -3  -2   7   81.84    4.91
  -3   2   7   80.64    3.92
   3   2  -6  615.47   33.09
   3   2  -6  630.52   20.04
   3   2  -6  599.41   38.16
   3  -2  -6  600.85   36.63
   3  -2  -6  534.21   30.70
   3  -2  -6  607.53   35.22
   3  -2  -6  637.27   30.20
  -3  -2   6  572.17   26.91
  -3   2   6  628.96   23.77
   3   2  -5  362.04   12.93
   3   2  -5  293.09   17.02
   3  -2  -5  311.46   19.21
   3  -2  -5  315.18   15.67
  -3  -2   5  261.60   13.39
  -3   2   5  306.06   11.02
   3   2  -4   86.19    5.36
   3   2  -4  114.76    4.98
   3   2  -4   97.48    6.45
   3  -2  -4   95.94    7.12
   3  -2  -4  116.52    6.21
   3   2  -3  506.77   19.74
   3   2  -3  417.18   20.55
   3   2  -3  401.61   19.80
   3  -2  -3  381.81   21.49
   3  -2  -3  434.47   20.16
   3   2  -2   45.21    3.09
   3   2  -2   41.30    2.81
   3   2  -2   47.42    2.61
   3  -2  -2   43.80    3.88
   3  -2  -2   40.67    3.07
   3   2  -1  327.48   16.42
   3   2  -1  333.18   14.87
   3   2  -1  285.27   14.07
   3  -2  -1  338.43   19.14
   3  -2  -1  340.35   15.98
   3   2   0   90.02    4.89
   3   2   0   75.03    4.66
   3   2   0   76.48    4.43
   3  -2   0   75.57    5.78
   3  -2   0   73.75    4.69
   3   2   1  132.49    6.78
   3   2   1  106.62    6.22
   3   2   1  134.43    7.12
   3  -2   1   98.57    4.14
   3  -2   1  114.14    6.36
   3   2   2  174.16    9.54
   3   2   2  164.50    9.55
   3  -2   2  181.36   10.09
   3  -2   2  147.99    6.42
   3   2   3   87.63    6.02
   3   2   3   78.61    5.33
   3  -2   3   78.72    3.73
   3  -2   3   85.62    5.66
   3   2   4 1782.29   95.52
   3   2   4 1966.61   99.95
   3  -2   4 1897.71   91.33
   3  -2   4 1856.24   76.29
   3   2   5  791.11   42.59
   3   2   5  752.19   39.57
   3   2   5  796.60   43.88
   3  -2   5  778.08   32.56
   3  -2   5  810.08   39.34
   3  -2   5  814.65   41.36
   3  -2   5  806.24   44.51
   3   2   6  246.21   13.83
   3   2   6  254.16   14.66
   3   2   6  270.59   17.96
   3   2   6  239.28   14.78
   3  -2   6  250.59   13.92
   3  -2   6  250.91   15.01
   3  -2   6  251.85   11.80
   3  -2   6  274.06   14.82
   3   2   7   75.39    5.06
   3   2   7   66.63    5.25
   3   2   7   83.51    5.55
   3   2   7   77.13    7.01
   3   2   7   76.41    4.81
   3  -2   7   72.53    4.45
   3  -2   7   69.70    5.38
   3  -2   7   72.15    4.34
   3  -2   7   78.65    4.77
  -3   2  -7   70.45    7.52
   3   2   8    3.00    0.88
   3   2   8    0.38    0.46
   3   2   8    4.77    0.83
   3   2   8    0.14    0.91
   3   2   8    0.14    0.68
   3  -2   8    1.75    0.58
   3  -2   8    0.31    0.78
   3  -2   8    3.29    0.64
   3  -2   8    0.49    0.50
   3  -2   8    2.19    0.73
  -3   2  -8    0.37    1.28
   3   2   9  291.56   20.66
   3   2   9  337.26   20.86
   3   2   9  328.22   24.20
   3   2   9  254.55   18.06
   3   2   9  333.92   26.00
   3   2   9  335.84   20.60
   3  -2   9  333.70   19.61
   3  -2   9  328.56   22.76
   3  -2   9  324.99   18.63
   3  -2   9  326.42   18.57
   3  -2   9  354.13   22.01
   3  -2   9  364.13   19.92
  -3  -2  -9  330.06   18.79
  -3   2  -9  327.16   28.30
   3   2  10   18.57    2.36
   3   2  10   17.39    2.60
   3   2  10   15.05    1.86
   3   2  10   14.03    2.97
   3   2  10   17.44    3.32
   3  -2  10   19.88    2.36
   3  -2  10   18.18    2.13
   3  -2  10   18.45    2.72
   3  -2  10   18.43    1.96
   3  -2  10   20.30    2.27
   3  -2  10   18.98    2.41
  -3  -2 -10   18.49    2.12
  -3  -2 -10   17.51    2.01
  -3   2 -10   15.61    2.62
   3   2  11  178.47   17.23
   3   2  11  187.99   12.98
   3   2  11  160.31   13.84
   3   2  11  190.76   13.57
   3   2  11  174.28   15.72
   3  -2  11  189.78   11.99
   3  -2  11  189.19   15.36
   3  -2  11  183.88   11.70
   3  -2  11  194.75   12.39
  -3  -2 -11  188.92   11.98
  -3  -2 -11  184.26   11.89
  -3   2 -11  170.14   14.26
  -3   2 -11  180.01   15.54
   3   2  12  466.09   31.12
   3   2  12  463.84   32.46
   3   2  12  378.79   32.13
   3   2  12  455.57   37.81
   3  -2  12  433.24   27.83
   3   2  12  419.18   36.49
   3  -2  12  446.03   34.67
   3  -2  12  440.08   27.79
   3  -2  12  451.65   28.12
  -3  -2 -12  459.95   26.47
  -3  -2 -12  463.59   29.11
  -3   2 -12  436.39   32.28
  -3   2 -12  432.22   34.14
   3   2  13  384.79   37.38
   3   2  13  401.94   29.00
   3   2  13  362.98   32.97
   3   2  13  421.77   37.61
   3   2  13  448.84   30.44
   3  -2  13  401.83   26.78
   3  -2  13  412.75   34.07
   3  -2  13  429.67   28.20
   3  -2  13  411.46   26.01
  -3  -2 -13  406.16   27.00
  -3  -2 -13  427.24   27.21
  -3   2 -13  413.74   32.00
  -3   2 -13  407.57   33.30
   3   2  14  186.80   14.10
   3   2  14  188.63   19.46
   3   2  14  194.47   14.47
   3   2  14  183.78   15.64
   3  -2  14  176.14   13.02
   3   2  14  154.18   15.11
   3   2  14  167.15   17.13
   3  -2  14  183.00   16.81
   3  -2  14  189.55   13.20
   3  -2  14  175.59   12.93
  -3  -2 -14  188.74   14.20
  -3  -2 -14  179.90   12.68
  -3   2 -14  174.54   14.63
  -3   2 -14  175.34   16.12
   3   2  15  119.49   15.46
   3   2  15  128.21   10.79
   3   2  15  118.13   13.95
   3   2  15  141.43   11.57
   3   2  15  125.46   12.26
   3   2  15  135.72   15.80
   3  -2  15  128.88   10.67
   3  -2  15  141.28   11.35
   3  -2  15  144.72   15.01
   3  -2  15  136.26   10.01
  -3  -2 -15  146.84   11.43
  -3   2 -15  135.51   13.04
  -3   2 -15  123.23   11.91
   3   2  16    2.74    0.92
   3   2  16    0.29    1.45
   3   2  16    0.14    1.61
   3   2  16   -0.09    1.11
   3   2  16    1.97    0.85
   3  -2  16    1.83    0.81
   3   2  16    2.05    1.61
   3  -2  16    0.37    1.39
   3  -2  16    0.26    0.89
  -3  -2 -16    0.15    0.94
  -3   2 -16    0.33    1.21
   3   2  17    8.88    1.99
   3   2  17   12.14    3.56
   3   2  17   10.80    2.72
   3   2  17    6.88    3.20
   3   2  17    9.06    2.65
   3   2  17   15.49    3.63
   3  -2  17   12.92    3.18
   3  -2  17    6.26    1.93
   3  -2  17    9.59    2.00
  -3  -2 -17    9.04    2.15
  -3   2 -17    9.02    2.62
   3   2  18  117.45    9.93
   3   2  18   99.32   14.58
   3   2  18   83.11   10.68
   3   2  18  114.97   12.20
   3   2  18  119.54   15.52
   3   2  18  117.80   14.66
   3  -2  18  115.16   10.16
   3  -2  18  134.77   14.25
   3  -2  18  120.17   10.89
  -3  -2 -18  114.79    9.97
  -3   2 -18  117.67   12.23
   3   2  19    0.24    1.40
   3   2  19    0.01    0.88
   3   2  19    1.04    1.13
   3   2  19    1.21    1.51
   3   2  19    0.49    0.85
   3  -2  19    1.44    0.89
   3  -2  19    3.68    1.50
   3  -2  19    0.15    0.94
   3   2  20   58.64    5.94
   3   2  20   53.05    8.71
   3   2  20   61.92    7.66
   3   2  20   62.60   10.59
   3   2  20   52.69    7.69
   3  -2  20   60.95    9.38
   3  -2  20   61.97    6.73
   3  -2  20   63.63    6.92
   3   2  21   35.23    4.24
   3   2  21   40.85    5.72
   3   2  21   23.38    5.38
   3   2  21   45.34    7.41
   3   2  21   39.42    6.65
   3  -2  21   46.56    7.33
   3  -2  21   40.33    4.86
   3  -2  21   45.36    5.61
   3   2  22    0.00    1.76
   3   2  22    0.21    1.70
   3   2  22    4.33    2.09
   3   2  22    2.60    1.40
   3  -2  22    5.14    1.88
   3  -2  22    1.20    1.38
   3  -2  22    3.00    1.39
   3   2  23   40.69    6.15
   3   2  23   37.64    6.32
   3  -2  23   41.67    6.66
   3  -2  23   34.70    4.92
   3  -2  23   34.00    5.00
   3   2  24    0.07    1.96
   3   2  24    2.01    1.79
   3   2  24    8.36    2.19
   3   2  24    6.48    1.80
   3  -2  24    8.62    2.33
   3  -2  24    4.57    1.52
   3  -2  24    0.24    1.64
  -3   2 -24    5.85    1.63
   3   2  25   12.43    2.46
   3   2  25   13.63    2.95
   3   2  25    0.46    2.48
   3  -2  25   21.48    3.15
   3  -2  25   11.49    2.18
   3  -2  25   -0.01    2.20
  -3   2 -25   15.86    2.34
   3   2  26   -0.01    0.80
   3   2  26    0.62    1.08
   3  -2  26    2.50    1.13
   3   3 -26    9.30    1.90
   3   3 -26    9.24    2.27
  -3   3  26    9.59    2.47
   3   3 -25   22.46    3.67
   3   3 -25   22.98    3.23
   3  -3 -25   16.52    3.61
   3   3 -24    5.22    1.63
   3   3 -24    5.86    1.48
   3  -3 -24    2.86    1.68
   3  -3 -24    2.70    1.54
  -3   3  24   -0.40    1.53
   3   3 -23    0.75    0.93
   3   3 -23    0.02    1.26
   3   3 -23    2.65    1.13
   3  -3 -23    0.32    1.18
   3  -3 -23    0.20    1.24
  -3   3  23    2.61    1.15
   3   3 -22    3.86    1.44
   3   3 -22    4.90    1.70
   3   3 -22    3.33    1.60
   3  -3 -22    1.20    1.76
   3  -3 -22   -0.16    1.80
  -3   3  22    3.85    1.70
   3   3 -21    4.75    1.61
   3   3 -21    3.09    1.33
   3   3 -21    4.63    2.01
   3  -3 -21    5.17    2.07
   3  -3 -21    2.67    1.92
  -3   3  21    4.08    1.99
   3   3 -20    5.01    1.92
   3   3 -20    3.91    1.81
   3  -3 -20    3.01    2.02
   3   3 -20    3.67    1.59
   3  -3 -20    1.58    2.02
  -3   3  20    3.71    1.90
   3   3 -19   10.44    2.43
   3   3 -19    6.65    2.85
   3   3 -19   10.99    3.08
   3   3 -19   11.99    2.87
   3  -3 -19   10.68    3.10
   3  -3 -19   10.76    2.58
   3  -3 -19    7.27    3.12
  -3  -3  19   12.02    2.51
  -3   3  19   12.92    2.86
   3   3 -18   64.84    8.48
   3   3 -18   62.36    6.88
   3   3 -18   78.98    8.86
   3   3 -18   85.43    8.53
   3  -3 -18   84.51    9.80
   3  -3 -18   90.76    8.83
   3   3 -18   83.24    8.94
   3  -3 -18   76.59    8.68
   3  -3 -18   44.46    6.02
   3  -3 -18   79.91   10.02
  -3  -3  18   82.99    6.88
  -3  -3  18   81.54    8.18
   3   3 -17   49.84    6.05
   3   3 -17   49.12    6.59
   3   3 -17   46.89    5.32
   3   3 -17   50.80    6.70
   3  -3 -17   47.30    5.79
   3   3 -17   38.46    6.29
   3  -3 -17   52.10    7.25
   3  -3 -17   45.05    7.52
   3  -3 -17   53.83    6.27
   3  -3 -17   42.89    7.35
  -3  -3  17   50.26    4.81
  -3  -3  17   53.44    6.19
   3   3 -16   -0.34    1.02
   3   3 -16    3.52    1.00
   3   3 -16   -0.01    0.99
   3   3 -16    0.08    0.93
   3   3 -16    0.73    1.00
   3   3 -16    0.55    0.90
   3  -3 -16    0.02    1.10
   3  -3 -16   -0.10    1.14
   3  -3 -16    0.08    0.87
   3  -3 -16   -0.02    0.72
   3  -3 -16    0.45    0.89
  -3  -3  16    1.60    0.66
  -3  -3  16   -0.45    0.85
   3   3 -15    7.61    1.14
   3   3 -15    3.99    1.47
   3   3 -15    2.65    1.28
   3   3 -15    0.84    1.54
   3   3 -15    5.30    1.17
   3   3 -15    4.05    1.73
   3  -3 -15    0.31    1.17
   3  -3 -15    0.24    1.60
   3  -3 -15    0.96    1.42
   3  -3 -15    2.14    1.38
   3  -3 -15    0.05    1.79
  -3  -3  15    1.89    1.00
  -3  -3  15    0.66    1.33
   3   3 -14  101.22   10.74
   3   3 -14  114.47   11.85
   3   3 -14  123.61   11.76
   3   3 -14  113.92   10.69
   3   3 -14  110.41    9.91
   3   3 -14  111.09   10.83
   3  -3 -14  103.16   12.25
   3  -3 -14  117.44   11.66
   3  -3 -14  103.23   11.37
   3  -3 -14  111.26   10.12
   3  -3 -14  100.18    9.87
  -3  -3  14  106.57    8.36
  -3  -3  14  108.41    9.67
  -3   3  14  100.58    9.37
   3   3 -13   -0.05    1.32
   3   3 -13    2.23    1.21
   3   3 -13    3.52    1.48
   3   3 -13    1.78    1.31
   3   3 -13    2.84    1.32
   3   3 -13    2.85    0.90
   3  -3 -13    0.06    1.10
   3  -3 -13    2.66    1.32
   3  -3 -13    0.99    1.22
   3  -3 -13    0.20    1.50
   3  -3 -13    2.92    1.14
  -3  -3  13    0.70    0.75
  -3  -3  13    4.68    1.07
  -3   3  13    0.43    0.91
   3   3 -12    7.46    2.03
   3   3 -12    9.01    1.92
   3   3 -12    7.53    2.21
   3   3 -12    6.75    1.59
   3   3 -12   10.08    2.19
   3   3 -12    8.02    1.98
   3   3 -12    7.81    2.23
   3  -3 -12    6.71    2.30
   3  -3 -12    7.48    2.10
   3  -3 -12    9.70    2.20
   3  -3 -12    7.76    1.82
   3  -3 -12    6.41    1.44
   3  -3 -12    7.52    1.28
  -3  -3  12    9.02    1.67
  -3   3  12    7.57    1.68
   3   3 -11   14.74    2.46
   3   3 -11   13.78    2.44
   3   3 -11   14.87    3.17
   3   3 -11   15.70    2.05
   3   3 -11   14.72    2.71
   3   3 -11   12.48    2.04
   3   3 -11   12.58    2.36
   3  -3 -11   15.22    2.52
   3  -3 -11   11.79    2.31
   3  -3 -11   14.13    1.82
   3  -3 -11   13.82    2.46
   3  -3 -11   13.99    1.91
   3  -3 -11   11.86    2.74
  -3  -3  11   14.37    1.68
  -3   3  11   13.91    1.97
   3   3 -10  138.08   10.71
   3   3 -10  130.73   12.25
   3   3 -10  160.48   11.73
   3   3 -10  149.45   11.73
   3   3 -10  156.17   10.43
   3   3 -10  152.70   12.69
   3   3 -10  150.72   11.62
   3  -3 -10  129.58    9.82
   3  -3 -10  150.22   12.21
   3  -3 -10  158.12   11.86
   3  -3 -10  142.14   11.06
   3  -3 -10  152.37   10.14
   3  -3 -10  149.80   11.75
   3  -3 -10  167.35   10.21
  -3  -3  10  152.57    9.35
  -3   3  10  150.55    9.65
   3   3  -9  376.09   24.60
   3   3  -9  422.63   29.74
   3   3  -9  415.14   30.13
   3   3  -9  430.66   28.30
   3   3  -9  407.96   27.47
   3   3  -9  418.88   25.89
   3   3  -9  434.16   30.45
   3  -3  -9  397.15   27.72
   3  -3  -9  419.73   28.16
   3  -3  -9  362.25   24.76
   3  -3  -9  403.46   24.45
   3  -3  -9  422.01   29.06
   3  -3  -9  419.65   28.79
   3  -3  -9  452.85   24.94
  -3  -3   9  432.74   24.32
   3   3  -8  981.12   58.17
   3   3  -8 1082.67   73.23
   3   3  -8 1113.15   69.91
   3   3  -8 1119.02   65.23
   3   3  -8 1085.36   70.45
   3   3  -8 1102.30   71.91
   3  -3  -8 1076.80   70.17
   3   3  -8 1078.44   67.67
   3  -3  -8 1081.27   69.64
   3  -3  -8 1146.75   71.97
   3  -3  -8 1033.79   65.84
   3  -3  -8 1058.80   60.51
   3  -3  -8 1095.63   68.27
   3  -3  -8 1165.56   60.69
  -3  -3   8 1132.03   60.14
   3   3  -7    2.66    0.78
   3   3  -7    4.03    0.82
   3   3  -7    5.81    1.06
   3   3  -7    0.25    0.91
   3   3  -7    2.11    0.78
   3   3  -7    2.65    0.66
   3  -3  -7    1.97    0.96
   3  -3  -7    0.72    1.11
   3  -3  -7    2.62    0.83
   3  -3  -7    1.69    0.65
   3  -3  -7    0.17    0.96
   3  -3  -7    1.56    0.80
  -3  -3   7    1.27    0.72
   3   3  -6    2.13    0.70
   3   3  -6    1.77    0.83
   3   3  -6    3.29    1.02
   3   3  -6    2.11    0.82
   3  -3  -6    2.31    0.91
   3  -3  -6    1.38    0.66
   3  -3  -6    2.70    0.72
   3  -3  -6    0.91    0.65
   3  -3  -6    1.81    0.75
  -3  -3   6    2.28    0.61
   3   3  -5    7.73    1.35
   3   3  -5    9.55    1.73
   3   3  -5    8.34    1.57
   3   3  -5   11.22    1.32
   3  -3  -5   10.30    1.55
   3  -3  -5    6.36    1.39
   3  -3  -5    9.33    1.47
   3  -3  -5    8.69    1.32
   3  -3  -5    6.84    1.60
  -3  -3   5    9.64    0.57
   3   3  -4   92.91    5.48
   3   3  -4  105.46    6.77
   3  -3  -4  115.37    7.18
   3  -3  -4   92.47    6.51
   3  -3  -4   99.87    7.49
   3  -3  -4  123.73    6.98
  -3  -3   4  105.77    4.05
   3   3  -3  272.49   15.46
   3   3  -3  311.41   15.83
   3  -3  -3  286.94   17.32
   3  -3  -3  278.26   16.16
   3  -3  -3  302.97   16.15
  -3  -3   3  281.68   10.70
   3   3  -2   78.63    4.50
   3   3  -2   75.46    5.37
   3  -3  -2   74.22    5.74
   3  -3  -2   81.61    5.35
   3   3  -1   24.90    2.71
   3   3  -1   31.97    2.15
   3   3  -1   24.61    1.77
   3  -3  -1   28.73    3.01
   3  -3  -1   30.74    2.65
   3   3   0  630.88   27.98
   3   3   0  647.22   31.14
   3   3   0  698.78   36.34
   3  -3   0  739.51   42.16
   3  -3   0  639.61   32.43
   3   3   1   85.35    5.97
   3   3   1   95.31    5.77
   3  -3   1   96.33    6.24
   3   3   2   32.13    3.06
   3   3   2   33.58    2.72
   3  -3   2   27.63    2.57
   3  -3   2   26.25    2.21
   3  -3   2   26.68    1.93
   3   3   3   36.51    3.46
   3   3   3   41.29    3.52
   3  -3   3   36.27    3.00
   3  -3   3   38.04    3.27
   3  -3   3   37.27    2.44
   3  -3   3   36.83    2.72
   3  -3   3   34.38    3.19
   3   3   4  576.40   31.48
   3   3   4  547.44   32.97
   3   3   4  565.34   35.99
   3  -3   4  622.65   31.93
   3  -3   4  542.24   28.91
   3  -3   4  549.91   31.28
   3  -3   4  546.12   25.41
   3  -3   4  535.17   29.95
   3   3   5   24.21    2.47
   3   3   5   22.20    3.19
   3   3   5   29.10    3.52
   3   3   5   21.35    2.77
   3  -3   5   23.79    2.35
   3  -3   5   27.50    2.67
   3  -3   5   23.80    2.10
   3  -3   5   24.06    2.49
   3  -3   5   35.33    2.24
  -3  -3  -5   26.43    2.34
   3   3   6  141.33    8.88
   3   3   6  131.31    9.16
   3   3   6  145.71   11.20
   3   3   6  161.62   11.72
   3  -3   6  151.56    9.09
   3  -3   6  145.10    8.48
   3  -3   6  142.06    8.39
   3  -3   6  135.82    7.44
   3  -3   6  141.41    9.02
  -3  -3  -6  149.47    8.65
   3   3   7   57.92    4.62
   3   3   7   65.43    6.63
   3   3   7   62.81    4.98
   3   3   7   73.04    6.84
   3  -3   7   66.67    4.56
   3   3   7   68.95    5.22
   3  -3   7   60.82    4.13
   3  -3   7   65.93    4.53
   3  -3   7   66.25    4.27
   3  -3   7   70.37    4.97
  -3  -3  -7   72.50    4.92
  -3  -3  -7   63.82    4.07
  -3   3  -7   69.26    7.81
   3   3   8  421.51   26.21
   3   3   8  410.79   25.86
   3   3   8  422.81   30.71
   3   3   8  434.12   32.41
   3  -3   8  411.53   27.58
   3  -3   8  393.82   25.24
   3   3   8  358.05   25.21
   3  -3   8  412.34   23.49
   3  -3   8  408.03   22.92
   3  -3   8  399.14   21.35
   3  -3   8  436.13   24.43
  -3  -3  -8  445.53   24.11
  -3  -3  -8  402.31   20.29
  -3   3  -8  413.68   36.63
   3   3   9   38.84    3.26
   3   3   9   31.68    4.28
   3   3   9   37.65    3.81
   3   3   9   35.18    4.83
   3   3   9   39.57    5.29
   3  -3   9   37.00    2.92
   3  -3   9   37.62    4.02
   3  -3   9   36.47    3.07
   3  -3   9   36.34    3.12
   3  -3   9   40.46    3.41
   3  -3   9   41.30    3.80
  -3  -3  -9   37.93    3.59
  -3   3  -9   36.53    5.70
   3   3  10   25.29    2.47
   3   3  10   21.21    3.96
   3   3  10   24.44    3.09
   3   3  10   29.16    3.60
   3  -3  10   25.96    3.29
   3   3  10   17.63    3.48
   3  -3  10   24.13    2.64
   3  -3  10   23.20    2.51
   3  -3  10   23.78    2.42
   3  -3  10   23.98    3.00
   3  -3  10   26.75    2.69
  -3  -3 -10   24.90    2.79
  -3   3 -10   23.46    4.24
   3   3  11  149.32   14.52
   3   3  11  181.92   12.60
   3   3  11  168.03   16.23
   3   3  11  177.27   17.78
   3   3  11  195.63   14.61
   3  -3  11  171.70   13.11
   3  -3  11  174.39   12.28
   3  -3  11  193.97   13.08
   3  -3  11  169.96   11.20
   3  -3  11  190.56   13.11
  -3  -3 -11  178.29   12.47
  -3   3 -11  163.29   14.38
  -3   3 -11  166.54   15.98
   3   3  12   29.41    3.52
   3   3  12   25.35    5.19
   3   3  12   25.80    3.72
   3   3  12   23.98    5.20
   3  -3  12   26.80    2.81
   3  -3  12   25.98    3.23
   3  -3  12   27.21    3.81
   3  -3  12   29.88    2.85
   3  -3  12   30.37    3.18
   3   3  12   26.82    4.58
  -3  -3 -12   27.95    3.36
  -3   3 -12   26.41    4.10
  -3   3 -12   26.85    4.00
   3   3  13   23.52    3.11
   3   3  13   21.42    4.96
   3   3  13   22.18    4.89
   3   3  13   18.05    4.43
   3  -3  13   23.55    2.95
   3  -3  13   22.42    3.74
   3  -3  13   22.54    2.51
   3  -3  13   22.86    2.93
   3   3  13   25.32    3.90
  -3  -3 -13   22.21    3.18
  -3   3 -13   25.16    3.86
  -3   3 -13   18.62    3.00
   3   3  14   16.32    2.06
   3   3  14   12.18    3.83
   3   3  14   14.21    2.31
   3   3  14   15.43    4.33
   3   3  14   14.65    4.01
   3  -3  14   18.73    2.74
   3  -3  14   13.71    2.36
   3  -3  14   17.35    3.20
   3  -3  14   16.21    2.22
  -3  -3 -14   16.05    2.90
  -3   3 -14   15.62    2.51
  -3   3 -14   15.76    3.25
   3   3  15   12.61    2.39
   3   3  15   11.71    3.73
   3   3  15   13.38    2.98
   3   3  15   13.99    4.08
   3  -3  15   15.41    3.15
   3  -3  15   12.89    2.13
   3  -3  15   11.56    1.95
   3   3  15    8.12    2.65
  -3  -3 -15   11.93    1.73
  -3   3 -15   14.58    3.01
  -3   3 -15   11.64    2.98
   3   3  16    5.29    1.56
   3   3  16    3.43    2.68
   3   3  16    4.45    1.90
   3   3  16    5.42    1.89
   3   3  16    6.00    2.85
   3   3  16    4.09    2.69
   3  -3  16    5.39    1.62
   3  -3  16    6.23    2.17
  -3  -3 -16    5.73    1.59
  -3   3 -16    4.71    2.14
  -3   3 -16    3.78    1.95
   3   3  17   50.16    5.40
   3   3  17   55.31    6.82
   3   3  17   43.43    8.38
   3   3  17   51.30    6.72
   3   3  17   51.84    9.01
   3   3  17   40.28    8.55
   3  -3  17   53.95    5.48
   3  -3  17   61.14    7.84
  -3  -3 -17   49.98    5.47
  -3   3 -17   48.43    6.73
  -3   3 -17   51.80    6.48
   3   3  18   43.94    4.72
   3   3  18   42.67    6.11
   3   3  18   33.76    7.88
   3   3  18   37.98    7.49
   3   3  18   47.78    6.46
   3   3  18   42.55    8.29
   3  -3  18   45.13    5.03
   3  -3  18   38.04    5.55
   3  -3  18   34.77    4.76
  -3  -3 -18   42.29    5.15
  -3   3 -18   41.16    6.24
  -3   3 -18   39.74    5.71
   3   3  19    0.25    0.65
   3   3  19    2.79    1.34
   3   3  19    0.76    1.61
   3   3  19    0.77    1.38
   3   3  19    1.39    1.76
   3  -3  19    0.73    1.52
   3  -3  19    0.97    0.95
   3  -3  19    2.78    1.04
   3   3  20    2.87    0.94
   3   3  20    0.30    1.54
   3   3  20    0.06    1.32
   3   3  20    0.25    1.23
   3   3  20    0.96    1.58
   3  -3  20    0.58    1.08
   3  -3  20    0.20    0.99
   3  -3  20    1.45    1.04
   3   3  21    5.97    1.62
   3   3  21    4.58    2.90
   3   3  21    6.10    2.46
   3   3  21    3.72    2.39
   3   3  21   10.03    2.99
   3  -3  21    5.53    1.85
   3  -3  21    9.27    2.71
   3  -3  21    4.78    1.98
   3   3  22    3.49    2.60
   3   3  22    6.18    2.40
   3   3  22    4.04    2.33
   3   3  22    6.99    2.71
   3  -3  22    9.09    2.56
   3  -3  22    4.90    1.41
   3  -3  22    6.76    2.02
   3   3  23    0.49    1.43
   3   3  23    1.42    1.18
   3   3  23    3.47    1.61
   3  -3  23    2.33    1.47
   3  -3  23    0.32    1.02
   3  -3  23    1.30    1.08
   3   3  24    0.04    0.91
   3   3  24    0.04    0.93
   3   3  24    0.12    1.07
   3  -3  24    0.27    1.05
   3  -3  24   -0.01    0.74
   3  -3  24    2.14    0.77
  -3   3 -24   -0.12    0.73
   3   3  25    0.14    1.48
   3   3  25    3.10    1.32
   3   3  25    4.60    1.65
   3  -3  25    7.64    1.78
   3  -3  25    1.25    1.14
   3  -3  25    0.55    1.27
  -3   3 -25    4.73    1.36
   3  -3  26    4.77    1.91
   3   4 -26    4.76    1.60
  -3   4  26    6.13    1.86
   3   4 -25    3.43    1.43
   3   4 -25    3.54    1.45
   3  -4 -25    2.14    1.28
  -3   4  25    0.90    1.54
   3   4 -24   16.24    2.50
   3   4 -24   17.16    2.39
   3  -4 -24    0.61    2.48
  -3   4  24   15.24    3.01
  -3   4  24    2.49    2.27
   3   4 -23   -0.09    1.09
   3   4 -23    2.95    1.44
   3   4 -23    2.43    1.25
   3  -4 -23    3.21    1.53
   3  -4 -23    0.03    1.35
  -3   4  23    4.12    1.63
  -3   4  23    2.42    1.37
   3   4 -22   13.07    2.34
   3   4 -22   15.27    3.14
   3   4 -22   13.70    2.84
   3  -4 -22    8.32    3.14
   3  -4 -22    5.55    3.18
  -3   4  22   11.92    3.05
   3   4 -21   41.70    5.22
   3   4 -21   45.16    6.46
   3   4 -21   46.51    5.82
   3  -4 -21   41.41    6.54
   3  -4 -21   38.66    5.84
  -3  -4  21   39.44    4.84
  -3   4  21   40.47    6.12
   3   4 -20   63.41    8.30
   3   4 -20   64.87    7.28
   3   4 -20   60.88    6.60
   3  -4 -20   69.44    9.11
   3  -4 -20   57.28    8.28
  -3  -4  20   60.78    6.27
  -3   4  20   63.72    8.74
   3   4 -19   39.74    6.08
   3   4 -19   39.20    4.29
   3   4 -19   39.05    5.79
   3   4 -19   38.75    4.73
   3  -4 -19   39.55    6.57
   3  -4 -19   33.44    6.02
  -3  -4  19   37.06    4.41
  -3   4  19   35.87    6.40
   3   4 -18   25.59    5.09
   3   4 -18   32.31    4.53
   3   4 -18   29.65    5.02
   3   4 -18   34.43    5.07
   3   4 -18   30.52    5.10
   3  -4 -18   31.55    5.45
   3  -4 -18   22.18    5.08
   3  -4 -18   25.01    4.74
  -3  -4  18   27.95    3.61
  -3  -4  18   31.50    4.81
  -3   4  18   31.83    5.29
   3   4 -17   39.34    6.32
   3   4 -17   52.74    6.27
   3   4 -17   50.82    6.48
   3   4 -17   45.85    6.19
   3   4 -17   51.52    6.85
   3   4 -17   42.12    6.62
   3  -4 -17   49.31    7.33
   3  -4 -17   38.44    6.24
   3  -4 -17   42.41    6.48
  -3  -4  17   51.71    5.04
  -3  -4  17   46.06    5.07
  -3   4  17   53.59    6.99
   3   4 -16   30.94    5.52
   3   4 -16   40.64    5.56
   3   4 -16   45.16    5.95
   3   4 -16   35.73    5.57
   3   4 -16   44.72    4.91
   3   4 -16   46.68    6.13
   3  -4 -16   31.45    6.11
   3  -4 -16   38.83    6.34
   3  -4 -16   32.72    5.59
   3  -4 -16   42.57    5.29
  -3  -4  16   45.76    4.64
  -3  -4  16   41.03    5.48
  -3   4  16   39.92    6.31
   3   4 -15   63.84    7.69
   3   4 -15   55.66    6.17
   3   4 -15   64.96    7.44
   3   4 -15   63.29    7.62
   3   4 -15   69.39    8.24
   3   4 -15   64.93    6.72
   3  -4 -15   72.53    8.53
   3  -4 -15   46.31    6.92
   3  -4 -15   61.98    6.92
   3  -4 -15   51.32    7.64
  -3  -4  15   68.56    5.42
  -3  -4  15   64.39    6.95
  -3   4  15   45.19    7.94
   3   4 -14  706.86   59.06
   3   4 -14  779.08   62.08
   3   4 -14  746.96   61.46
   3   4 -14  798.81   65.66
   3   4 -14  823.74   68.25
   3   4 -14  791.70   59.44
   3  -4 -14  812.43   66.33
   3  -4 -14  616.40   53.40
   3  -4 -14  762.31   62.20
   3  -4 -14  754.31   58.84
  -3  -4  14  811.67   54.55
  -3  -4  14  773.95   56.73
  -3   4  14  746.09   63.77
   3   4 -13    3.81    0.99
   3   4 -13    1.68    1.53
   3   4 -13    0.68    1.41
   3   4 -13    0.58    1.32
   3   4 -13    2.03    1.04
   3   4 -13    2.72    1.46
   3  -4 -13    0.77    1.37
   3  -4 -13    1.19    1.43
   3  -4 -13    0.86    1.19
   3  -4 -13    2.82    0.92
   3  -4 -13    0.60    0.95
   3  -4 -13    2.82    1.19
   3  -4 -13    3.28    1.35
  -3  -4  13    1.28    0.93
  -3  -4  13    2.44    1.29
   3   4 -12  368.59   29.90
   3   4 -12  426.69   33.82
   3   4 -12  417.57   30.67
   3   4 -12  426.18   33.65
   3   4 -12  462.50   32.66
   3   4 -12  428.11   35.18
   3   4 -12  449.02   37.30
   3  -4 -12  412.92   32.39
   3  -4 -12  441.74   35.54
   3  -4 -12  440.08   34.30
   3  -4 -12  411.06   32.28
   3  -4 -12  421.68   27.68
   3  -4 -12  439.83   35.13
   3  -4 -12  457.17   28.72
  -3  -4  12  430.41   29.74
   3   4 -11   29.70    3.82
   3   4 -11   34.21    4.61
   3   4 -11   33.78    4.10
   3   4 -11   30.10    4.28
   3   4 -11   32.54    3.82
   3   4 -11   36.09    4.84
   3   4 -11   35.55    3.85
   3  -4 -11   37.58    3.72
   3  -4 -11   31.80    4.72
   3  -4 -11   28.46    4.30
   3  -4 -11   33.22    4.47
   3  -4 -11   32.31    4.22
   3  -4 -11   30.34    3.18
   3  -4 -11   30.76    3.99
  -3  -4  11   31.47    3.51
   3   4 -10  130.72   10.84
   3   4 -10  153.62   13.58
   3   4 -10  146.61   13.32
   3   4 -10  155.86   12.29
   3   4 -10  148.60   11.24
   3   4 -10  157.63   13.41
   3   4 -10  151.47   11.30
   3  -4 -10  156.03   13.04
   3  -4 -10  169.45   13.52
   3  -4 -10  139.93   11.04
   3  -4 -10  161.39   11.51
   3  -4 -10  154.09   11.68
   3  -4 -10  148.04   13.14
   3  -4 -10  166.73   12.10
  -3  -4  10  155.17   10.46
   3   4  -9   45.13    3.98
   3   4  -9   59.14    5.35
   3   4  -9   51.77    5.67
   3   4  -9   49.54    4.99
   3   4  -9   51.26    5.59
   3   4  -9   52.75    4.89
   3   4  -9   51.68    5.83
   3  -4  -9   53.19    4.62
   3  -4  -9   58.27    5.58
   3  -4  -9   52.44    5.62
   3  -4  -9   48.21    4.32
   3  -4  -9   47.17    5.34
   3  -4  -9   54.90    5.20
   3  -4  -9   52.04    4.63
  -3  -4   9   56.18    4.76
   3   4  -8  115.54    8.53
   3   4  -8  128.34   11.43
   3   4  -8  128.05    9.76
   3   4  -8  133.80   10.36
   3   4  -8  137.84   11.20
   3   4  -8  132.84    9.86
   3   4  -8  134.22   10.82
   3  -4  -8  131.57   10.28
   3  -4  -8  135.81   10.62
   3  -4  -8  133.05   10.05
   3  -4  -8  128.87    8.66
   3  -4  -8  139.94   10.72
   3  -4  -8  126.38   10.85
   3  -4  -8  146.83   10.28
  -3  -4   8  133.51    9.09
   3   4  -7   41.10    3.60
   3   4  -7   41.27    4.85
   3   4  -7   39.39    3.92
   3   4  -7   40.24    3.58
   3   4  -7   36.55    4.05
   3   4  -7   43.66    3.86
   3   4  -7   43.28    3.52
   3  -4  -7   41.53    4.06
   3  -4  -7   47.75    4.24
   3  -4  -7   40.40    3.61
   3  -4  -7   39.27    4.06
   3  -4  -7   41.77    3.77
   3  -4  -7   40.58    4.35
   3  -4  -7   39.56    3.89
  -3  -4   7   45.19    3.55
   3   4  -6  155.02    9.47
   3   4  -6  163.94   13.37
   3   4  -6  153.47   10.86
   3   4  -6  164.72   12.12
   3   4  -6  164.25   10.37
   3   4  -6  158.30   10.96
   3  -4  -6  149.82   11.03
   3  -4  -6  139.12    9.98
   3  -4  -6  158.22   11.29
   3  -4  -6  159.23   10.58
   3  -4  -6  159.57   11.00
   3  -4  -6  177.15   10.71
  -3  -4   6  146.42    8.69
   3   4  -5    5.98    1.39
   3   4  -5    6.68    1.07
   3   4  -5    6.22    1.55
   3   4  -5    6.19    1.31
   3   4  -5    8.29    1.41
   3  -4  -5    7.12    1.05
   3  -4  -5    7.79    1.54
   3  -4  -5    5.76    1.28
   3  -4  -5    4.94    1.43
   3  -4  -5    8.52    1.54
   3  -4  -5    6.28    0.98
  -3   4   5    4.95    1.60
  -3   4   5    8.50    1.46
   3   4  -4  515.78   31.40
   3   4  -4  458.08   23.19
   3   4  -4  569.44   35.83
   3   4  -4  576.09   39.07
   3   4  -4  548.58   33.46
   3  -4  -4  564.70   33.79
   3  -4  -4  528.98   32.19
   3  -4  -4  536.75   33.58
   3  -4  -4  530.75   30.55
   3  -4  -4  589.10   33.04
  -3  -4   4  532.27   19.62
  -3   4   4  565.89   36.18
  -3   4   4  537.49   33.49
   3   4  -3   91.96    6.98
   3   4  -3  102.53    5.82
   3   4  -3  103.66    7.86
   3   4  -3   93.71    8.34
   3   4  -3   97.79    7.20
   3  -4  -3   91.94    6.44
   3  -4  -3  100.54    7.44
   3  -4  -3  101.32    6.64
   3  -4  -3  104.02    7.46
   3  -4  -3   93.22    7.08
  -3  -4   3  104.06    4.91
  -3   4   3   93.14    7.19
   3   4  -2   18.12    1.51
   3   4  -2   19.34    2.69
   3   4  -2   19.44    2.76
   3   4  -2   18.69    2.54
   3   4  -2   20.06    1.86
   3  -4  -2   19.40    2.08
   3  -4  -2   16.41    2.14
   3  -4  -2   23.12    2.79
   3  -4  -2   19.17    1.75
   3  -4  -2   21.27    2.52
  -3  -4   2   20.30    1.31
   3   4  -1   86.98    4.31
   3   4  -1   91.13    7.09
   3   4  -1   85.16    7.04
   3   4  -1   81.93    6.42
   3  -4  -1   80.43    6.10
   3  -4  -1   82.15    5.95
   3  -4  -1   81.31    5.58
   3  -4  -1   87.71    5.59
  -3  -4   1   84.40    4.52
   3   4   0   64.40    3.31
   3   4   0   59.80    4.98
   3   4   0   53.70    5.14
   3   4   0   60.01    5.30
   3  -4   0   52.77    4.09
   3  -4   0   64.58    4.31
   3  -4   0   57.96    4.57
   3  -4   0   67.72    5.12
  -3  -4   0   60.14    3.40
   3   4   1  654.11   39.64
   3   4   1  708.19   44.73
   3   4   1  698.04   43.70
   3  -4   1  731.37   38.70
   3  -4   1  673.70   36.99
   3  -4   1  676.73   40.33
   3  -4   1  667.73   38.05
  -3  -4  -1  660.96   30.85
   3   4   2  242.19   16.98
   3   4   2  243.52   14.23
   3   4   2  219.27   15.59
   3   4   2  253.19   17.58
   3  -4   2  266.21   15.14
   3  -4   2  241.32   14.90
   3  -4   2  236.63   13.91
   3  -4   2  238.94   14.93
  -3  -4  -2  230.31   12.07
   3   4   3  712.33   39.88
   3   4   3  705.36   44.35
   3   4   3  718.84   45.87
   3   4   3  727.26   47.07
   3  -4   3  678.72   36.25
   3  -4   3  674.07   37.02
   3  -4   3  682.54   36.65
   3  -4   3  686.80   39.60
   3  -4   3  680.33   37.86
   3  -4   3  609.42   32.90
  -3  -4  -3  671.84   33.29
   3   4   4  410.48   24.14
   3   4   4  375.11   25.20
   3   4   4  415.87   28.21
   3   4   4  408.63   28.78
   3  -4   4  384.60   22.79
   3  -4   4  389.21   22.17
   3  -4   4  380.81   20.91
   3  -4   4  380.29   20.51
   3  -4   4  379.41   22.59
   3  -4   4  392.41   20.68
  -3  -4  -4  391.84   20.96
   3   4   5   40.42    3.57
   3   4   5   38.27    4.58
   3   4   5   34.11    4.41
   3   4   5   39.25    4.72
   3  -4   5   36.84    2.96
   3  -4   5   39.02    3.07
   3  -4   5   45.28    3.75
   3  -4   5   37.08    3.31
   3  -4   5   37.16    3.45
   3  -4   5   40.07    3.12
  -3  -4  -5   43.62    3.44
   3   4   6  505.81   31.44
   3   4   6  475.79   34.18
   3   4   6  546.60   38.76
   3   4   6  540.94   33.48
   3   4   6  532.19   39.12
   3  -4   6  518.00   29.47
   3  -4   6  538.92   29.96
   3  -4   6  515.85   29.05
   3  -4   6  501.10   30.32
   3  -4   6  533.83   29.26
  -3  -4  -6  518.14   28.55
  -3   4  -6  504.82   43.93
   3   4   7   52.16    4.03
   3   4   7   47.78    5.42
   3   4   7   46.82    4.65
   3   4   7   49.75    4.90
   3   4   7   52.39    5.85
   3  -4   7   52.48    4.24
   3  -4   7   49.17    3.93
   3  -4   7   49.01    3.65
   3  -4   7   49.99    4.33
   3  -4   7   51.39    3.92
  -3  -4  -7   54.37    4.37
  -3   4  -7   54.90    7.45
   3   4   8    5.36    1.30
   3   4   8    8.01    1.25
   3   4   8    2.25    1.24
   3   4   8   12.41    1.86
   3   4   8    5.76    1.98
   3  -4   8    4.97    1.09
   3  -4   8    3.65    1.01
   3  -4   8    3.91    1.27
   3  -4   8    4.66    0.99
   3  -4   8    4.66    1.28
   3  -4   8    3.54    1.05
  -3  -4  -8    4.12    1.18
  -3   4  -8    4.39    2.20
   3   4   9    3.31    1.20
   3   4   9    2.04    1.66
   3   4   9    2.17    0.94
   3   4   9    1.71    1.09
   3   4   9    3.99    1.77
   3  -4   9    2.76    0.96
   3  -4   9    2.62    0.92
   3  -4   9    3.29    1.13
   3  -4   9    2.50    0.86
   3  -4   9    2.85    1.07
   3  -4   9    4.29    0.99
  -3  -4  -9    4.91    1.18
  -3   4  -9    8.61    1.94
   3   4  10   24.36    3.34
   3   4  10   19.62    3.82
   3   4  10   25.74    4.58
   3   4  10   25.53    3.68
   3   4  10   28.85    3.83
   3  -4  10   27.58    3.03
   3  -4  10   27.68    2.65
   3  -4  10   25.43    2.55
   3  -4  10   23.21    2.50
   3  -4  10   25.92    2.87
   3  -4  10   26.61    2.75
  -3  -4 -10   32.23    3.63
  -3   4 -10   25.85    4.17
  -3   4 -10   24.22    4.88
   3   4  11   12.42    2.05
   3   4  11    9.54    2.30
   3   4  11    7.29    2.44
   3   4  11    8.83    3.04
   3   4  11   10.50    2.22
   3  -4  11    8.59    1.49
   3  -4  11    9.65    2.20
   3  -4  11    8.67    1.49
   3  -4  11   10.21    1.66
   3  -4  11   12.09    1.96
  -3  -4 -11    9.13    2.26
  -3   4 -11    8.97    2.68
  -3   4 -11   11.03    2.71
   3   4  12  218.08   17.04
   3   4  12  168.37   17.77
   3   4  12  205.09   17.32
   3   4  12  207.87   21.20
   3   4  12  182.44   20.28
   3  -4  12  220.14   17.58
   3  -4  12  205.97   15.08
   3  -4  12  230.57   16.10
   3  -4  12  209.55   14.07
   3  -4  12  221.98   16.66
  -3  -4 -12  202.74   13.92
  -3   4 -12  186.84   17.08
  -3   4 -12  198.23   17.56
   3   4  13    4.28    1.35
   3   4  13    1.35    2.12
   3   4  13    2.28    1.94
   3   4  13    2.61    1.51
   3   4  13    2.59    1.99
   3  -4  13    3.98    1.20
   3  -4  13    1.06    0.95
   3  -4  13    2.80    1.42
   3  -4  13    4.17    1.33
   3  -4  13    3.01    1.09
  -3  -4 -13    1.75    0.93
  -3   4 -13    2.71    1.73
  -3   4 -13    2.83    1.61
   3   4  14  128.32   10.08
   3   4  14  109.06   12.57
   3   4  14  119.60   15.55
   3   4  14  124.82   12.25
   3   4  14  116.88   15.43
   3  -4  14  137.67   12.51
   3  -4  14  125.01   10.37
   3  -4  14  128.55    9.47
  -3  -4 -14  116.27   10.19
  -3   4 -14  121.40   11.40
  -3   4 -14  120.28   13.14
   3   4  15   59.65    6.27
   3   4  15   47.68    8.86
   3   4  15   55.63    9.86
   3   4  15   59.53    7.82
   3   4  15   56.18    9.49
   3  -4  15   61.57    6.19
   3  -4  15   68.14    7.72
  -3  -4 -15   60.33    6.34
  -3   4 -15   61.45    8.01
  -3   4 -15   59.48    7.86
   3   4  16   87.70    7.95
   3   4  16   72.96    9.44
   3   4  16   68.34   11.68
   3   4  16   82.39   11.81
   3   4  16   80.22   12.13
   3  -4  16   88.91    8.32
   3  -4  16   96.92   10.24
  -3  -4 -16   87.17    8.25
  -3   4 -16   84.49    8.44
  -3   4 -16   85.97    9.78
   3   4  17   18.70    2.98
   3   4  17   16.16    4.99
   3   4  17   18.84    4.31
   3   4  17   16.35    5.10
   3   4  17   11.76    5.08
   3  -4  17   18.48    2.36
   3  -4  17   21.59    3.84
  -3  -4 -17   16.84    3.03
  -3   4 -17   16.49    3.86
  -3   4 -17   17.50    3.62
   3   4  18  115.45   10.71
   3   4  18  123.20   13.67
   3   4  18  110.59   15.73
   3   4  18  117.26   16.46
   3  -4  18  114.68   10.72
   3  -4  18  134.57   14.62
  -3   4 -18  121.11   12.41
   3   4  19   10.30    2.06
   3   4  19    9.48    3.16
   3   4  19    6.98    3.51
   3   4  19   11.67    3.94
   3  -4  19    6.93    2.39
   3  -4  19    7.24    2.01
   3  -4  19    9.91    2.17
  -3   4 -19    7.91    2.42
   3   4  20   55.75    9.34
   3   4  20   62.60    8.72
   3   4  20   55.52    5.20
   3   4  20   57.29    9.79
   3  -4  20   63.24    6.54
   3  -4  20   67.80    9.13
   3  -4  20   59.60    6.80
   3   4  21   16.28    2.76
   3   4  21   16.41    3.54
   3   4  21   14.46    4.42
   3   4  21   17.05    4.77
   3  -4  21   20.08    4.38
   3  -4  21   16.56    3.03
   3  -4  21   16.83    2.36
   3   4  22   20.71    5.32
   3   4  22   24.70    4.90
   3   4  22   24.53    5.16
   3  -4  22   32.51    5.13
   3  -4  22   22.32    3.54
   3  -4  22   28.79    3.78
   3   4  23    0.78    1.29
   3   4  23    0.69    1.46
   3   4  23    0.86    1.43
   3  -4  23    1.77    1.51
   3  -4  23    0.28    0.99
   3  -4  23    3.25    1.09
   3   4  24    0.03    1.59
   3   4  24    4.44    1.69
   3  -4  24    8.14    1.74
   3  -4  24    0.45    1.20
   3  -4  24    4.45    1.43
  -3   4 -24    3.27    1.28
   3   4  25    0.01    1.34
   3   4  25    2.29    1.15
   3  -4  25    0.47    1.22
   3  -4  25    2.49    0.97
  -3   4 -25    0.58    0.99
   3   5 -25    9.68    1.80
  -3   5  25    6.07    2.28
   3   5 -24   -0.06    1.29
   3   5 -24    1.33    1.13
   3  -5 -24   -0.04    1.34
  -3   5  24    3.03    1.46
  -3   5  24    6.94    1.30
   3   5 -23    0.18    0.81
   3   5 -23    0.08    0.99
   3   5 -23    3.45    0.95
   3  -5 -23    0.24    1.02
  -3   5  23    0.29    1.14
  -3   5  23    0.28    1.04
   3   5 -22    2.04    0.79
   3   5 -22    0.11    0.95
   3   5 -22    0.01    1.03
   3  -5 -22   -0.21    1.11
  -3  -5  22   -0.08    0.79
  -3   5  22    3.52    1.30
  -3   5  22   -0.13    1.02
   3   5 -21    4.90    1.73
   3   5 -21    6.64    2.01
   3   5 -21    4.94    2.03
   3  -5 -21    6.84    2.33
  -3  -5  21    4.80    1.56
  -3   5  21    3.94    2.76
  -3   5  21    5.37    2.28
   3   5 -20    5.89    1.88
   3   5 -20    5.81    2.24
   3   5 -20    5.07    2.34
   3   5 -20    6.34    1.69
   3  -5 -20    7.05    2.71
  -3  -5  20    6.31    1.72
  -3   5  20    6.81    2.78
  -3   5  20    7.15    2.63
   3   5 -19   41.97    4.77
   3   5 -19   41.34    5.57
   3   5 -19   42.74    6.59
   3   5 -19   39.40    4.78
   3  -5 -19   45.56    7.19
   3  -5 -19   40.05    7.31
  -3  -5  19   44.67    4.87
  -3   5  19   44.38    7.52
  -3   5  19   42.00    5.76
   3   5 -18    4.66    2.14
   3   5 -18    6.99    1.87
   3   5 -18    5.56    2.49
   3   5 -18    8.33    2.47
   3  -5 -18    5.00    2.55
   3  -5 -18    2.67    2.27
  -3  -5  18    5.86    1.52
  -3   5  18    3.18    2.57
   3   5 -17    0.15    1.13
   3   5 -17    0.55    1.16
   3   5 -17    0.37    0.89
   3   5 -17   -0.09    1.03
   3   5 -17    3.16    1.14
   3   5 -17    0.32    0.96
   3  -5 -17    0.72    1.20
   3  -5 -17    0.52    1.04
  -3  -5  17    0.05    0.71
  -3  -5  17   -0.12    0.92
  -3   5  17    0.74    1.12
   3   5 -16    0.76    1.17
   3   5 -16    0.05    0.79
   3   5 -16    3.55    1.11
   3   5 -16   -0.42    1.15
   3   5 -16    2.95    1.18
   3   5 -16    0.25    1.20
   3  -5 -16    3.47    1.35
   3  -5 -16   -0.01    1.10
  -3  -5  16    0.04    0.58
  -3  -5  16    0.29    0.97
  -3   5  16    0.35    0.99
   3   5 -15   55.61    7.88
   3   5 -15   63.46    8.10
   3   5 -15   65.11    7.78
   3   5 -15   59.30    7.41
   3   5 -15   69.61    7.68
   3   5 -15   64.04    8.14
   3  -5 -15   55.37    8.39
   3  -5 -15   63.99    8.91
   3  -5 -15   57.46    7.87
  -3  -5  15   64.90    6.41
  -3  -5  15   59.72    5.91
  -3   5  15   62.61    8.69
   3   5 -14   25.22    4.87
   3   5 -14   19.76    4.50
   3   5 -14   28.42    4.50
   3   5 -14   35.88    4.60
   3   5 -14   28.89    4.58
   3   5 -14   26.33    4.75
   3  -5 -14   28.84    4.92
   3  -5 -14   26.51    5.07
   3  -5 -14   26.52    3.15
   3  -5 -14   22.47    4.50
   3  -5 -14   25.99    3.74
  -3  -5  14   26.26    3.45
  -3  -5  14   28.28    4.07
  -3   5  14   28.51    5.35
   3   5 -13   18.56    3.85
   3   5 -13   24.35    4.54
   3   5 -13   22.79    3.12
   3   5 -13   20.74    3.87
   3   5 -13   24.51    4.49
   3   5 -13   28.95    3.78
   3   5 -13   23.44    4.15
   3  -5 -13   21.41    2.85
   3  -5 -13   21.12    4.00
   3  -5 -13   24.93    3.49
   3  -5 -13   19.24    3.82
   3  -5 -13   24.21    3.58
   3  -5 -13   22.75    3.45
  -3  -5  13   24.62    3.51
  -3   5  13   21.37    4.62
   3   5 -12   11.99    2.50
   3   5 -12   14.22    3.21
   3   5 -12   12.78    2.69
   3   5 -12   10.99    2.58
   3   5 -12   14.84    3.29
   3   5 -12   14.92    2.70
   3   5 -12   10.18    3.12
   3  -5 -12    9.73    2.79
   3  -5 -12   13.28    3.01
   3  -5 -12   15.09    3.19
   3  -5 -12   13.13    2.17
   3  -5 -12   10.61    2.33
   3  -5 -12   12.12    2.48
  -3  -5  12   10.88    2.29
  -3   5  12   14.09    3.30
   3   5 -11  204.09   17.04
   3   5 -11  235.34   20.84
   3   5 -11  238.89   19.68
   3   5 -11  228.35   18.75
   3   5 -11  234.99   18.49
   3   5 -11  245.20   20.77
   3   5 -11  244.29   22.18
   3  -5 -11  225.38   18.06
   3  -5 -11  237.24   20.51
   3  -5 -11  243.24   21.47
   3  -5 -11  232.69   17.05
   3  -5 -11  251.72   21.89
   3  -5 -11  261.01   18.81
  -3  -5  11  221.23   15.58
  -3   5  11  221.32   21.01
   3   5 -10   48.69    4.85
   3   5 -10   44.55    5.23
   3   5 -10   53.50    5.24
   3   5 -10   52.72    5.70
   3   5 -10   54.88    6.47
   3   5 -10   54.02    5.58
   3   5 -10   54.81    6.46
   3  -5 -10   56.04    6.45
   3  -5 -10   49.08    5.36
   3  -5 -10   55.25    5.25
   3  -5 -10   51.43    5.42
   3  -5 -10   50.99    6.07
   3  -5 -10   58.89    6.02
  -3  -5  10   53.84    5.32
  -3   5  10   46.59    6.15
   3   5  -9    2.13    0.79
   3   5  -9    0.12    1.04
   3   5  -9    1.78    0.95
   3   5  -9    2.62    1.19
   3   5  -9    3.37    1.26
   3   5  -9    0.64    0.97
   3  -5  -9    0.15    1.02
   3  -5  -9   -0.01    0.90
   3  -5  -9    0.05    1.00
   3  -5  -9    0.24    0.91
   3  -5  -9    1.91    0.93
   3  -5  -9    2.23    1.09
  -3  -5   9    2.16    0.88
  -3   5   9    0.05    1.26
  -3   5   9    3.73    1.19
   3   5  -8  224.20   16.51
   3   5  -8  201.72   14.05
   3   5  -8  225.45   19.32
   3   5  -8  220.48   16.79
   3   5  -8  236.64   18.72
   3   5  -8  230.18   17.65
   3  -5  -8  203.67   15.17
   3  -5  -8  228.10   17.72
   3  -5  -8  244.15   16.94
   3  -5  -8  224.38   17.42
   3  -5  -8  235.82   16.97
   3  -5  -8  247.96   17.61
  -3  -5   8  214.45   14.60
  -3   5   8  244.00   20.08
  -3   5   8  220.96   18.65
   3   5  -7   20.20    3.60
   3   5  -7   17.75    2.18
   3   5  -7   21.09    3.08
   3   5  -7   20.58    2.92
   3   5  -7   20.40    2.77
   3   5  -7   20.46    2.93
   3  -5  -7   19.23    2.75
   3  -5  -7   18.83    2.80
   3  -5  -7   19.04    2.63
   3  -5  -7   14.98    2.87
   3  -5  -7   19.69    2.73
   3  -5  -7   22.32    3.11
  -3  -5   7   18.32    2.29
  -3   5   7   20.57    3.67
  -3   5   7   18.27    3.06
   3   5  -6  537.75   30.05
   3   5  -6  550.20   41.92
   3   5  -6  548.39   36.91
   3   5  -6  529.41   35.17
   3   5  -6  554.54   36.69
   3   5  -6  564.11   39.60
   3  -5  -6  536.11   36.74
   3  -5  -6  568.10   37.11
   3  -5  -6  567.18   37.79
   3  -5  -6  550.66   35.80
   3  -5  -6  554.22   35.50
   3  -5  -6  569.48   36.01
  -3  -5   6  472.66   28.64
  -3   5   6  544.45   39.50
  -3   5   6  583.62   41.44
   3   5  -5   30.36    3.65
   3   5  -5   35.57    4.10
   3   5  -5   35.25    4.40
   3   5  -5   31.66    3.62
   3   5  -5   32.38    3.69
   3   5  -5   32.18    3.29
   3  -5  -5   32.06    3.42
   3  -5  -5   32.46    3.61
   3  -5  -5   33.12    3.45
   3  -5  -5   33.77    3.32
   3  -5  -5   34.58    3.39
   3  -5  -5   36.63    4.04
  -3   5   5   34.62    3.97
  -3   5   5   34.04    4.09
   3   5  -4   56.38    5.46
   3   5  -4   51.73    5.15
   3   5  -4   56.61    5.16
   3   5  -4   60.01    5.76
   3   5  -4   55.25    4.64
   3   5  -4   60.88    5.52
   3  -5  -4   56.61    5.15
   3  -5  -4   71.67    5.92
   3  -5  -4   61.51    5.05
   3  -5  -4   52.96    5.01
   3  -5  -4   63.55    5.21
   3  -5  -4   62.83    4.74
  -3   5   4   58.41    6.01
  -3   5   4   58.60    4.88
   3   5  -3   45.94    4.63
   3   5  -3   46.47    5.41
   3   5  -3   51.09    4.82
   3   5  -3   52.40    4.65
   3  -5  -3   50.71    4.58
   3  -5  -3   61.13    5.42
   3  -5  -3   51.57    4.30
   3  -5  -3   46.90    4.41
   3  -5  -3   49.42    3.88
   3  -5  -3   54.21    4.92
  -3  -5   3   51.53    2.95
  -3   5   3   48.36    5.05
  -3   5   3   51.80    4.74
   3   5  -2    0.68    0.58
   3   5  -2    0.71    0.91
   3   5  -2    2.34    0.96
   3   5  -2    0.69    0.76
   3  -5  -2    0.15    0.64
   3  -5  -2    0.39    0.69
   3  -5  -2    0.46    0.64
   3  -5  -2    0.49    0.69
   3  -5  -2    1.11    0.83
  -3  -5   2    1.62    0.39
  -3   5   2    0.06    0.84
  -3   5   2    2.07    0.56
   3   5  -1   57.40    4.88
   3   5  -1   51.20    5.48
   3   5  -1   58.84    5.79
   3   5  -1   55.31    5.12
   3  -5  -1   55.86    4.68
   3  -5  -1   52.88    4.61
   3  -5  -1   58.96    4.53
   3  -5  -1   57.48    4.74
   3  -5  -1   59.47    5.15
  -3  -5   1   55.59    3.26
  -3   5   1   54.19    5.02
  -3   5   1   56.87    5.23
   3   5   0   60.16    4.08
   3   5   0   53.22    4.65
   3   5   0   48.34    5.27
   3   5   0   53.06    5.25
   3   5   0   55.01    5.25
   3  -5   0   51.45    4.32
   3  -5   0   51.45    3.72
   3  -5   0   52.76    4.08
   3  -5   0   54.39    4.56
   3  -5   0   56.34    4.72
  -3  -5   0   52.51    3.23
  -3   5   0   50.19    4.74
  -3   5   0   53.02    4.63
   3   5   1  137.29    8.41
   3   5   1  107.59    8.11
   3   5   1  110.60    9.89
   3   5   1  130.12   10.57
   3   5   1  123.22    9.86
   3  -5   1  123.64    8.47
   3  -5   1  124.41    8.61
   3  -5   1  113.89    7.55
   3  -5   1  117.59    8.47
   3  -5   1  118.88    7.87
  -3  -5  -1  117.75    6.66
  -3   5  -1  115.29    8.74
  -3   5  -1  115.50    9.16
   3   5   2    1.19    0.53
   3   5   2    0.13    0.76
   3   5   2    1.80    0.79
   3   5   2    0.20    0.78
   3   5   2    0.24    0.80
   3  -5   2   -0.06    0.58
   3  -5   2    0.17    0.58
   3  -5   2    1.75    0.53
   3  -5   2    0.63    0.67
   3  -5   2    0.44    0.59
  -3  -5  -2    0.61    0.34
  -3   5  -2    0.84    0.72
   3   5   3    6.26    1.16
   3   5   3    4.90    1.76
   3   5   3    5.39    1.60
   3   5   3    4.93    1.70
   3   5   3    5.76    1.67
   3  -5   3    5.18    1.22
   3  -5   3    9.06    1.21
   3  -5   3    6.99    1.14
   3  -5   3    4.65    1.29
   3  -5   3    5.08    1.35
   3  -5   3    5.29    0.90
  -3  -5  -3    4.94    1.17
   3   5   4    8.61    1.57
   3   5   4    8.83    2.26
   3   5   4    7.74    2.14
   3   5   4    9.53    2.20
   3  -5   4    7.67    1.36
   3  -5   4    9.33    1.42
   3  -5   4   10.01    1.43
   3  -5   4    9.83    1.60
   3  -5   4   11.59    1.64
   3  -5   4    8.47    1.55
  -3  -5  -4    9.44    1.55
   3   5   5   52.69    5.97
   3   5   5   48.82    5.58
   3   5   5   57.22    4.91
   3   5   5   57.93    5.27
   3   5   5   56.26    5.32
   3  -5   5   54.82    4.37
   3  -5   5   57.22    4.58
   3  -5   5   57.07    4.30
   3  -5   5   53.54    4.53
   3  -5   5   55.46    4.07
  -3  -5  -5   57.43    4.77
  -3   5  -5   55.88    7.68
   3   5   6   20.68    2.83
   3   5   6   19.05    2.62
   3   5   6   20.46    3.03
   3   5   6   19.39    3.35
   3   5   6   22.19    3.66
   3  -5   6   24.62    2.79
   3  -5   6   20.60    2.50
   3  -5   6   24.50    2.63
   3  -5   6   21.66    2.33
   3  -5   6   22.63    2.56
  -3  -5  -6   21.90    2.45
  -3   5  -6   24.59    4.84
   3   5   7   90.10    7.47
   3   5   7   84.11    9.05
   3   5   7   76.12    8.22
   3   5   7   93.81    8.34
   3   5   7   83.39    9.10
   3  -5   7   82.17    6.57
   3  -5   7   89.79    6.83
   3  -5   7   85.65    6.07
   3  -5   7   90.17    7.19
   3  -5   7   92.20    7.02
  -3  -5  -7   89.09    6.74
  -3   5  -7   84.46    9.89
   3   5   8   58.02    5.58
   3   5   8   46.34    6.08
   3   5   8   48.63    6.65
   3   5   8   49.07    5.13
   3   5   8   51.41    6.50
   3  -5   8   53.11    4.22
   3  -5   8   52.81    4.64
   3  -5   8   50.87    4.18
   3  -5   8   51.40    4.80
   3  -5   8   48.91    4.47
  -3  -5  -8   51.59    4.66
  -3   5  -8   51.89    7.78
   3   5   9    1.41    1.46
   3   5   9    2.44    1.73
   3   5   9    2.82    1.41
   3   5   9    2.79    1.72
   3   5   9    3.58    1.34
   3  -5   9    4.38    1.10
   3  -5   9    3.58    1.03
   3  -5   9    4.15    1.23
   3  -5   9    4.40    1.16
   3  -5   9    3.24    1.07
  -3  -5  -9    5.02    1.27
  -3   5  -9    4.79    2.19
   3   5  10    4.17    1.32
   3   5  10    3.45    1.68
   3   5  10    1.32    1.50
   3   5  10    1.06    1.38
   3   5  10    5.08    1.85
   3  -5  10    2.69    1.19
   3  -5  10    3.35    1.14
   3  -5  10    3.59    1.03
   3  -5  10    2.52    1.08
   3  -5  10    3.31    1.07
  -3  -5 -10    4.52    1.19
  -3   5 -10    2.69    1.58
  -3   5 -10    1.35    1.27
   3   5  11   10.96    2.04
   3   5  11    7.05    2.03
   3   5  11    6.35    2.27
   3   5  11    6.97    2.89
   3   5  11    8.19    2.84
   3  -5  11    7.20    1.42
   3  -5  11    9.40    1.95
   3  -5  11    6.38    1.90
   3  -5  11    8.22    1.61
   3  -5  11    7.59    1.35
  -3  -5 -11    9.88    1.57
  -3   5 -11    8.95    2.30
  -3   5 -11    7.76    2.93
   3   5  12    2.30    1.04
   3   5  12    0.30    1.31
   3   5  12    0.36    1.62
   3   5  12    0.30    1.64
   3   5  12    0.99    1.56
   3  -5  12    0.45    0.83
   3  -5  12    1.02    1.03
   3  -5  12    2.84    1.00
   3  -5  12    1.46    0.76
   3  -5  12    0.53    1.09
  -3  -5 -12    2.54    1.19
  -3   5 -12    3.56    1.30
  -3   5 -12    0.72    1.45
   3   5  13   17.05    2.94
   3   5  13   14.00    4.02
   3   5  13    9.83    3.29
   3   5  13   15.52    2.78
   3   5  13   17.18    4.27
   3  -5  13   15.53    2.86
   3  -5  13   16.21    3.02
   3  -5  13   16.47    3.12
  -3  -5 -13   16.34    3.04
  -3   5 -13   14.10    3.54
  -3   5 -13   14.28    3.75
   3   5  14  108.93    9.31
   3   5  14   84.70   10.60
   3   5  14   98.66   14.26
   3   5  14  107.23   11.84
   3   5  14   98.50   14.47
   3  -5  14  118.65   11.03
   3  -5  14  107.24    9.81
   3  -5  14  108.12   10.40
  -3  -5 -14  112.56   10.40
  -3   5 -14  103.03    9.78
  -3   5 -14   99.89   12.06
   3   5  15   12.83    2.65
   3   5  15    8.49    3.60
   3   5  15   14.19    3.72
   3   5  15   11.65    4.49
   3   5  15   13.97    3.88
   3  -5  15   11.08    2.47
   3  -5  15   12.62    2.84
  -3  -5 -15   10.99    2.61
  -3   5 -15   12.09    3.06
  -3   5 -15   13.17    2.51
   3   5  16    5.74    1.87
   3   5  16    5.49    2.89
   3   5  16    8.18    2.93
   3   5  16    4.21    2.94
   3  -5  16    6.66    1.78
   3  -5  16    6.95    2.21
  -3  -5 -16    6.20    1.86
  -3   5 -16    5.75    2.45
  -3   5 -16    5.59    1.72
   3   5  17   23.64    3.61
   3   5  17   17.05    5.82
   3   5  17   23.61    5.20
   3   5  17   23.73    5.63
   3  -5  17   23.93    3.65
   3  -5  17   25.11    4.49
  -3   5 -17   24.36    4.34
   3   5  18    8.18    2.11
   3   5  18    7.26    3.74
   3   5  18    8.88    2.90
   3   5  18    7.60    2.75
   3  -5  18    8.00    2.19
   3  -5  18    8.36    2.82
  -3   5 -18   12.59    2.55
   3   5  19    0.32    0.99
   3   5  19    0.64    1.61
   3   5  19    0.04    0.89
   3   5  19    0.69    1.14
   3  -5  19    0.04    0.88
   3  -5  19    0.72    1.00
   3  -5  19    2.85    0.95
  -3   5 -19    2.36    1.11
   3   5  20    0.39    0.72
   3   5  20   -0.05    1.08
   3   5  20    1.26    1.08
   3  -5  20    0.07    0.65
   3  -5  20    0.05    0.99
   3  -5  20    0.08    0.67
  -3   5 -20    0.22    0.76
   3   5  21    5.64    2.84
   3   5  21    7.53    2.60
   3   5  21    8.50    2.77
   3  -5  21   10.02    2.74
   3  -5  21    4.57    1.69
   3  -5  21   10.22    1.94
  -3   5 -21    4.04    1.95
   3   5  22   11.80    3.28
   3   5  22   11.45    3.26
   3  -5  22   12.85    3.17
   3  -5  22    7.39    1.99
   3  -5  22   14.24    2.46
   3   5  23    3.72    2.01
   3   5  23    5.98    2.35
   3  -5  23    6.14    1.82
   3  -5  23    1.12    1.57
   3  -5  23    4.12    1.49
   3   5  24    0.20    1.13
   3   5  24    2.42    1.14
   3  -5  24    2.22    1.13
   3  -5  24    1.13    0.89
  -3   5 -24    0.15    0.93
   3   6 -24    7.31    1.68
  -3   6  24    5.57    2.08
   3   6 -23    0.90    1.24
   3  -6 -23    0.32    1.35
  -3   6  23   13.77    1.77
  -3   6  23   -0.03    1.39
   3   6 -22    4.17    1.23
   3   6 -22    1.25    1.33
   3   6 -22    2.54    1.41
   3  -6 -22    3.03    1.65
  -3  -6  22    4.39    1.20
  -3   6  22    4.95    1.89
  -3   6  22    0.05    1.52
   3   6 -21    0.30    0.85
   3   6 -21    0.30    0.70
   3   6 -21    0.94    1.02
   3   6 -21    0.67    1.14
   3  -6 -21   -0.17    1.16
  -3  -6  21    0.18    0.78
  -3   6  21    4.14    1.35
  -3   6  21    2.58    1.18
   3   6 -20    7.96    1.84
   3   6 -20    8.33    2.11
   3   6 -20    0.48    1.88
   3   6 -20    6.78    2.32
   3  -6 -20    6.77    2.50
  -3  -6  20    6.33    1.70
  -3   6  20    6.05    2.73
  -3   6  20    8.77    2.63
   3   6 -19   -0.12    0.97
   3   6 -19    2.51    1.07
   3   6 -19    0.34    0.86
   3   6 -19   -0.02    1.09
   3  -6 -19    0.29    1.32
  -3  -6  19    2.03    0.82
  -3   6  19    0.41    1.05
  -3   6  19    1.05    1.39
   3   6 -18    1.55    1.55
   3   6 -18    3.09    1.61
   3   6 -18    1.52    1.51
   3   6 -18    3.17    1.71
   3  -6 -18    3.42    2.10
  -3  -6  18    3.55    1.22
  -3   6  18    3.43    2.04
  -3   6  18    1.05    1.52
   3   6 -17   12.16    3.11
   3   6 -17   13.05    3.12
   3   6 -17   15.46    3.44
   3   6 -17    9.38    2.88
   3   6 -17   12.49    3.49
   3  -6 -17   15.11    4.07
  -3  -6  17   14.07    1.95
  -3   6  17   14.74    4.11
  -3   6  17   13.58    4.21
   3   6 -16   88.59    9.99
   3   6 -16   93.70   11.25
   3   6 -16   86.28    8.88
   3   6 -16   89.72    9.48
   3   6 -16   96.26    9.94
   3  -6 -16   94.08    7.69
   3  -6 -16   94.90   12.12
  -3  -6  16   84.38    8.31
  -3   6  16   83.01   12.07
  -3   6  16   85.51   11.98
   3   6 -15  140.41   15.17
   3   6 -15  146.54   14.46
   3   6 -15  141.42   14.09
   3   6 -15  149.53   16.68
   3   6 -15  142.63   14.86
   3  -6 -15  149.46   17.14
   3  -6 -15  151.46   12.03
  -3  -6  15  141.46   12.23
  -3  -6  15  136.56   11.86
  -3   6  15  132.87   16.61
  -3   6  15  138.10   17.93
   3   6 -14  267.55   24.85
   3   6 -14  284.63   25.68
   3   6 -14  259.78   24.44
   3   6 -14  267.74   23.40
   3   6 -14  276.20   25.37
   3  -6 -14  272.42   20.26
   3  -6 -14  278.46   28.68
   3  -6 -14  267.38   22.59
  -3  -6  14  260.67   20.52
  -3  -6  14  285.59   24.24
  -3   6  14  265.53   29.56
  -3   6  14  254.97   28.03
   3   6 -13  104.12   11.03
   3   6 -13  103.95   12.20
   3   6 -13  104.80   11.10
   3   6 -13  103.86   12.54
   3   6 -13  105.05   11.10
   3  -6 -13  103.83   12.05
   3  -6 -13  103.40    9.36
   3  -6 -13  112.10   11.16
  -3  -6  13  101.25   10.18
  -3   6  13  100.82   12.55
  -3   6  13  102.96   13.93
   3   6 -12  262.25   23.77
   3   6 -12  288.57   27.53
   3   6 -12  288.93   25.00
   3   6 -12  293.15   24.15
   3   6 -12  287.86   27.81
   3  -6 -12  286.50   22.18
   3  -6 -12  289.96   26.83
   3  -6 -12  280.19   24.15
   3  -6 -12  302.75   24.27
  -3  -6  12  253.87   19.13
  -3   6  12  275.42   27.30
  -3   6  12  273.43   28.24
   3   6 -11   48.94    6.02
   3   6 -11   44.12    6.52
   3   6 -11   48.62    5.87
   3   6 -11   42.03    6.19
   3   6 -11   48.05    5.72
   3  -6 -11   47.55    6.42
   3  -6 -11   44.67    5.95
   3  -6 -11   46.07    5.25
   3  -6 -11   43.72    5.40
   3  -6 -11   43.93    5.12
   3  -6 -11   50.61    6.01
  -3  -6  11   45.90    5.35
  -3   6  11   38.40    5.52
  -3   6  11   47.27    7.27
   3   6 -10   13.29    3.05
   3   6 -10   18.08    3.22
   3   6 -10   12.97    2.74
   3   6 -10   12.98    2.58
   3   6 -10   15.30    3.12
   3  -6 -10   11.91    2.74
   3  -6 -10   14.67    3.05
   3  -6 -10   13.21    3.15
   3  -6 -10   15.72    2.03
   3  -6 -10   11.54    2.37
   3  -6 -10    7.71    2.43
  -3  -6  10   12.60    2.55
  -3   6  10   12.84    3.44
  -3   6  10   12.91    3.22
   3   6  -9   60.98    6.81
   3   6  -9   67.72    6.85
   3   6  -9   63.50    7.35
   3   6  -9   68.82    6.87
   3   6  -9   68.05    7.32
   3  -6  -9   72.18    7.01
   3  -6  -9   75.44    7.73
   3  -6  -9   70.53    7.83
   3  -6  -9   72.41    6.92
   3  -6  -9   63.75    6.82
   3  -6  -9   70.01    6.50
  -3  -6   9   66.64    6.31
  -3   6   9   63.22    8.06
  -3   6   9   66.11    8.78
   3   6  -8    1.62    1.18
   3   6  -8    0.44    0.88
   3   6  -8   -0.01    0.92
   3   6  -8   -0.06    0.91
   3   6  -8    2.01    0.81
   3  -6  -8    0.65    0.97
   3  -6  -8    0.28    0.81
   3  -6  -8   -0.27    0.78
   3  -6  -8    3.24    0.79
   3  -6  -8    0.30    0.78
   3  -6  -8    2.80    0.98
  -3  -6   8    0.49    0.52
  -3   6   8    0.24    0.79
  -3   6   8   -0.06    0.74
   3   6  -7   26.87    3.69
   3   6  -7   26.72    3.57
   3   6  -7   26.01    3.76
   3   6  -7   25.76    3.68
   3   6  -7   25.07    3.49
   3  -6  -7   25.82    3.84
   3  -6  -7   32.69    3.94
   3  -6  -7   27.44    2.87
   3  -6  -7   21.91    3.23
   3  -6  -7   27.77    3.41
   3  -6  -7   28.68    4.17
  -3  -6   7   23.06    2.90
  -3   6   7   28.24    4.65
  -3   6   7   28.51    4.44
   3   6  -6   96.15    8.98
   3   6  -6   95.57   10.12
   3   6  -6   91.54    8.15
   3   6  -6   87.88    7.72
   3   6  -6   89.80    8.50
   3  -6  -6   93.50    8.41
   3  -6  -6  114.82    9.21
   3  -6  -6   96.34    8.05
   3  -6  -6   95.33    8.22
   3  -6  -6   96.74    8.06
   3  -6  -6   95.38    8.57
  -3  -6   6   80.35    6.92
  -3   6   6   95.83    9.60
  -3   6   6   91.52    8.53
   3   6  -5   19.17    3.15
   3   6  -5   21.71    2.65
   3   6  -5   23.55    4.07
   3   6  -5   22.26    3.01
   3   6  -5   21.12    3.16
   3   6  -5   24.24    3.70
   3  -6  -5   22.60    2.43
   3  -6  -5   24.28    3.21
   3  -6  -5   20.24    2.94
   3  -6  -5   22.93    2.94
   3  -6  -5   26.49    3.48
  -3   6   5   24.53    3.79
  -3   6   5   23.88    3.59
   3   6  -4  213.29   17.01
   3   6  -4  229.42   19.47
   3   6  -4  245.99   18.43
   3   6  -4  251.18   18.47
   3   6  -4  241.97   18.68
   3  -6  -4  241.22   18.34
   3  -6  -4  241.22   17.25
   3  -6  -4  246.93   17.76
   3  -6  -4  256.67   17.03
   3  -6  -4  249.25   18.02
  -3   6   4  254.54   19.78
  -3   6   4  266.23   20.82
   3   6  -3   92.43    8.85
   3   6  -3  117.51   10.66
   3   6  -3  101.25    8.36
   3   6  -3  100.22    9.30
   3   6  -3  104.52    9.05
   3  -6  -3   99.71    7.73
   3  -6  -3  101.08    8.70
   3  -6  -3  107.00    7.55
   3  -6  -3   96.18    7.88
   3  -6  -3  106.29    8.08
  -3   6   3  103.96    9.42
  -3   6   3  107.40    9.68
   3   6  -2   57.77    6.02
   3   6  -2   66.97    7.29
   3   6  -2   67.17    6.63
   3   6  -2   66.12    5.54
   3  -6  -2   71.50    6.35
   3  -6  -2   50.89    5.08
   3  -6  -2   69.22    5.69
   3  -6  -2   74.03    5.99
   3  -6  -2   58.84    6.13
  -3  -6   2   67.67    4.25
  -3   6   2   68.91    6.40
  -3   6   2   67.44    6.42
   3   6  -1   19.01    2.29
   3   6  -1   18.02    2.86
   3   6  -1   17.25    2.38
   3   6  -1   18.55    2.80
   3  -6  -1   17.32    2.24
   3  -6  -1   16.63    2.60
   3  -6  -1   17.18    2.38
   3  -6  -1   16.48    2.40
   3  -6  -1   19.46    2.07
  -3  -6   1   16.41    1.64
  -3   6   1   14.63    2.70
  -3   6   1   17.09    2.69
   3   6   0   33.07    2.99
   3   6   0   30.84    4.34
   3   6   0   33.22    4.46
   3   6   0   30.75    3.47
   3   6   0   29.39    3.90
   3  -6   0   33.32    3.69
   3  -6   0   32.39    3.32
   3  -6   0   32.07    3.19
   3  -6   0   34.29    3.33
   3  -6   0   38.80    3.87
  -3  -6   0   33.85    2.63
  -3   6   0   29.68    3.88
  -3   6   0   31.08    3.62
   3   6   1    0.37    0.67
   3   6   1    0.57    1.08
   3   6   1    2.19    1.03
   3   6   1    0.39    1.09
   3   6   1    0.98    1.06
   3  -6   1    1.83    0.84
   3  -6   1    2.20    0.83
   3  -6   1    2.23    0.84
   3  -6   1    5.29    1.01
  -3  -6  -1    1.25    0.62
  -3   6  -1    0.02    0.98
  -3   6  -1    0.16    0.84
   3   6   2  458.12   35.21
   3   6   2  489.83   29.01
   3   6   2  389.68   30.66
   3   6   2  415.35   33.46
   3   6   2  441.50   33.60
   3  -6   2  473.19   31.13
   3  -6   2  452.65   29.02
   3  -6   2  454.24   29.60
   3  -6   2  474.36   30.20
   3  -6   2  450.27   27.42
  -3  -6  -2  451.96   25.74
  -3   6  -2  445.85   31.38
  -3   6  -2  434.45   31.22
   3   6   3   31.08    3.13
   3   6   3   26.50    4.10
   3   6   3   27.63    4.00
   3   6   3   28.19    4.05
   3   6   3   30.64    4.60
   3  -6   3   27.57    3.32
   3  -6   3   32.07    3.62
   3  -6   3   31.19    3.16
   3  -6   3   30.79    3.43
   3  -6   3   30.39    3.27
  -3  -6  -3   29.12    2.94
  -3   6  -3   26.41    3.48
  -3   6  -3   30.84    6.12
   3   6   4  293.17   19.97
   3   6   4  285.91   23.22
   3   6   4  292.94   23.64
   3   6   4  239.44   20.39
   3   6   4  300.06   24.59
   3  -6   4  310.57   20.02
   3  -6   4  302.78   20.28
   3  -6   4  309.45   19.32
   3  -6   4  288.36   19.89
   3  -6   4  299.97   19.31
  -3  -6  -4  275.59   17.99
  -3   6  -4  289.66   21.16
  -3   6  -4  293.72   30.40
   3   6   5   35.32    3.20
   3   6   5   28.67    4.76
   3   6   5   34.43    5.10
   3   6   5   33.43    4.85
   3  -6   5   33.50    3.67
   3  -6   5   29.64    3.50
   3  -6   5   35.41    3.44
   3  -6   5   35.03    3.63
   3  -6   5   40.24    3.74
  -3  -6  -5   32.50    3.46
  -3   6  -5   29.21    3.52
  -3   6  -5   48.15    7.41
   3   6   6   20.72    2.84
   3   6   6   15.21    2.51
   3   6   6   15.16    3.60
   3   6   6   18.52    3.93
   3   6   6   15.82    2.66
   3  -6   6   18.73    2.71
   3  -6   6   20.01    2.81
   3  -6   6   17.97    2.43
   3  -6   6   19.80    2.62
   3  -6   6   19.50    2.30
  -3  -6  -6   18.19    2.56
  -3   6  -6   15.09    4.94
   3   6   7   93.18    8.62
   3   6   7   85.07    9.71
   3   6   7   90.79    9.04
   3   6   7   98.26    9.03
   3   6   7   99.71   10.78
   3  -6   7  107.57    8.01
   3  -6   7  103.00    8.60
   3  -6   7  101.23    7.57
   3  -6   7  105.93    7.64
   3  -6   7  100.23    8.18
  -3  -6  -7   95.40    8.09
  -3   6  -7   99.67   11.42
   3   6   8   32.19    4.21
   3   6   8   29.41    3.90
   3   6   8   27.07    5.03
   3   6   8   31.54    4.20
   3   6   8   36.58    5.14
   3  -6   8   31.29    3.70
   3  -6   8   34.85    3.45
   3  -6   8   30.54    2.83
   3  -6   8   30.99    3.02
   3  -6   8   35.24    3.90
  -3  -6  -8   31.88    3.81
  -3   6  -8   29.64    3.48
  -3   6  -8   35.11    6.22
   3   6   9   10.10    2.27
   3   6   9    6.84    2.23
   3   6   9    8.26    2.91
   3   6   9    8.84    2.99
   3   6   9    8.95    2.16
   3  -6   9    9.89    1.61
   3  -6   9    9.21    1.94
   3  -6   9   11.50    2.08
   3  -6   9    9.24    1.76
  -3  -6  -9   12.04    2.07
  -3   6  -9    9.51    2.54
  -3   6  -9   12.72    3.54
   3   6  10  105.65   10.16
   3   6  10   97.67   10.52
   3   6  10   84.03   11.45
   3   6  10  112.63   11.13
   3   6  10  106.11   12.92
   3  -6  10  102.52    9.10
   3  -6  10  103.18    7.55
   3  -6  10   96.31    8.66
   3  -6  10  105.23    8.36
  -3  -6 -10   99.58    9.14
  -3   6 -10   95.75    9.80
  -3   6 -10  103.61   12.56
   3   6  11  107.94   11.04
   3   6  11  101.83   10.91
   3   6  11   95.89   12.92
   3   6  11  103.39   12.90
   3   6  11  119.08   13.80
   3  -6  11   80.02    8.84
   3  -6  11  114.37    9.81
   3  -6  11  114.44    8.42
   3  -6  11  108.45    9.64
   3  -6  11  114.89    9.23
  -3  -6 -11  113.42    9.18
  -3   6 -11  103.85    9.72
  -3   6 -11  105.41   12.58
   3   6  12  231.82   19.10
   3   6  12  191.89   23.64
   3   6  12  169.71   22.59
   3   6  12  233.14   21.05
   3   6  12  215.45   23.69
   3  -6  12  271.17   20.47
   3  -6  12  247.30   18.72
   3  -6  12  243.09   19.78
  -3  -6 -12  164.65   17.40
  -3   6 -12  217.42   19.93
  -3   6 -12  227.56   23.53
   3   6  13  143.16   13.98
   3   6  13  136.67   13.13
   3   6  13  112.86   16.83
   3   6  13  150.10   17.09
   3   6  13  130.56   16.77
   3  -6  13  141.10   12.40
   3  -6  13  144.73   13.21
   3  -6  13  135.35   12.95
  -3  -6 -13  136.76   13.16
  -3   6 -13  130.14   13.54
  -3   6 -13  137.75   15.77
   3   6  14   65.60    7.44
   3   6  14   55.89   10.76
   3   6  14   63.71   10.23
   3   6  14   64.96    9.08
   3   6  14   66.24   10.04
   3  -6  14   74.64    6.61
   3  -6  14   80.05    8.00
   3  -6  14   68.88    6.80
  -3  -6 -14   69.73    7.75
  -3   6 -14   61.26    8.00
  -3   6 -14   69.19    9.13
   3   6  15   31.68    4.15
   3   6  15   25.51    5.08
   3   6  15   19.85    6.12
   3   6  15   22.41    6.27
   3   6  15   23.83    5.72
   3  -6  15   26.86    4.00
   3  -6  15   28.06    3.97
  -3  -6 -15   23.71    4.17
  -3   6 -15   23.27    3.53
  -3   6 -15   23.58    4.91
   3   6  16   17.01    3.21
   3   6  16   11.49    4.03
   3   6  16   15.63    4.92
   3   6  16   12.22    4.51
   3  -6  16   17.77    3.00
   3  -6  16   18.57    3.44
  -3   6 -16   16.34    3.80
   3   6  17   29.57    4.47
   3   6  17   25.82    6.10
   3   6  17   24.60    5.00
   3   6  17   24.23    5.81
   3  -6  17   27.67    4.11
   3  -6  17   29.61    4.81
  -3   6 -17   26.75    3.82
   3   6  18   16.20    3.21
   3   6  18   13.56    4.70
   3   6  18   15.94    3.95
   3   6  18   17.48    4.62
   3  -6  18   20.35    3.15
   3  -6  18   19.71    3.76
  -3   6 -18   14.68    2.68
   3   6  19   45.49    8.63
   3   6  19   44.28    6.44
   3  -6  19   53.48    5.79
   3  -6  19   61.41    7.55
   3  -6  19   46.56    5.04
  -3   6 -19   51.33    6.20
   3   6  20    4.66    2.49
   3   6  20    6.58    2.43
   3  -6  20    2.92    1.38
   3  -6  20    4.18    2.05
   3  -6  20    5.92    1.62
  -3   6 -20    4.67    1.69
   3   6  21    0.25    0.73
   3   6  21    0.19    0.66
   3  -6  21   -0.07    0.58
   3  -6  21   -0.01    0.37
   3  -6  21   -0.26    0.48
  -3   6 -21    0.05    0.44
   3   6  22   13.23    3.33
   3   6  22   16.64    3.14
   3  -6  22   -0.09    2.57
   3  -6  22   17.87    2.46
  -3   6 -22   11.53    2.30
   3   6  23    0.17    1.05
   3   6  23   -0.10    1.01
   3  -6  23    2.87    1.27
   3  -6  23    0.32    0.80
  -3   6 -23    1.75    0.79
   3   7 -23    0.06    0.48
  -3   7  23   -0.32    0.66
   3   7 -22    2.53    1.01
   3  -7 -22   -0.09    1.03
  -3  -7  22    1.75    0.82
  -3   7  22    1.56    1.35
  -3   7  22   -0.05    1.10
   3   7 -21    0.18    0.67
   3   7 -21    0.21    0.50
   3   7 -21    0.38    0.79
   3  -7 -21    0.16    0.90
  -3  -7  21    1.61    0.62
  -3   7  21    0.00    1.15
  -3   7  21   -0.23    0.88
   3   7 -20    0.19    1.03
   3   7 -20    0.80    1.10
   3   7 -20    1.25    1.27
   3  -7 -20   -0.07    1.41
  -3  -7  20    2.45    0.99
  -3   7  20    5.87    1.84
  -3   7  20    3.84    1.46
   3   7 -19   11.82    2.78
   3   7 -19   13.57    2.66
   3   7 -19   11.00    2.37
   3  -7 -19    9.44    3.08
  -3  -7  19   10.99    2.16
  -3   7  19   10.44    3.62
  -3   7  19   14.02    3.57
   3   7 -18    4.35    1.67
   3   7 -18    4.67    1.67
   3   7 -18    2.74    1.80
   3  -7 -18    3.27    2.05
  -3  -7  18    3.84    1.35
  -3   7  18    1.25    2.20
  -3   7  18    4.53    2.28
   3   7 -17   69.36    8.37
   3   7 -17   74.32    8.33
   3   7 -17   66.28    8.24
   3   7 -17   75.77    9.11
   3  -7 -17   75.07    9.99
  -3  -7  17   68.93    7.05
  -3   7  17   64.58   10.13
  -3   7  17   70.44   10.59
   3   7 -16   12.90    2.68
   3   7 -16   16.90    3.43
   3   7 -16   15.79    3.65
   3   7 -16   15.56    3.72
   3  -7 -16   17.82    4.10
   3  -7 -16   16.27    2.46
  -3  -7  16   15.22    2.79
  -3   7  16   14.27    4.39
  -3   7  16   15.79    4.33
   3   7 -15   12.31    2.88
   3   7 -15   10.29    3.03
   3   7 -15   10.29    2.93
   3   7 -15    8.19    3.18
   3  -7 -15    9.17    3.44
   3  -7 -15   12.25    2.19
  -3  -7  15   11.50    1.81
  -3   7  15    8.41    3.75
  -3   7  15   14.42    4.12
   3   7 -14    7.62    2.58
   3   7 -14    9.52    2.80
   3   7 -14    9.36    2.52
   3   7 -14    6.23    2.76
   3  -7 -14    8.23    3.04
   3  -7 -14    8.91    1.94
  -3  -7  14    7.49    1.92
  -3   7  14    8.39    3.16
  -3   7  14    9.08    3.31
   3   7 -13    0.00    1.23
   3   7 -13    0.34    1.02
   3   7 -13    2.06    1.10
   3   7 -13   -0.09    1.21
   3   7 -13    0.54    1.02
   3  -7 -13    2.54    0.89
   3  -7 -13    0.27    1.24
   3  -7 -13   -0.20    1.12
  -3  -7  13    0.05    1.00
  -3   7  13   -0.03    1.41
  -3   7  13    0.16    1.07
   3   7 -12    7.57    2.74
   3   7 -12    8.14    1.78
   3   7 -12    6.61    2.69
   3   7 -12    6.59    2.48
   3   7 -12    7.55    1.74
   3  -7 -12    5.99    3.01
   3  -7 -12    9.49    2.30
   3  -7 -12    8.26    1.89
  -3  -7  12    6.57    2.25
  -3   7  12   10.37    3.12
  -3   7  12   11.86    3.31
   3   7 -11   64.00    7.84
   3   7 -11   67.43    7.85
   3   7 -11   62.53    8.79
   3   7 -11   66.60    8.20
   3   7 -11   70.68    8.88
   3  -7 -11   72.38    9.07
   3  -7 -11   65.66    7.70
   3  -7 -11   72.43    8.49
  -3  -7  11   64.01    7.07
  -3   7  11   68.15    9.33
  -3   7  11   63.62    9.68
   3   7 -10   27.99    4.06
   3   7 -10   23.36    4.53
   3   7 -10   23.68    3.24
   3   7 -10   27.59    4.39
   3   7 -10   27.12    5.01
   3  -7 -10   26.03    4.81
   3  -7 -10   25.78    3.30
   3  -7 -10   27.26    4.85
  -3  -7  10   26.19    3.14
  -3   7  10   22.12    5.02
  -3   7  10   24.83    5.43
   3   7  -9   62.13    7.71
   3   7  -9   71.15    7.72
   3   7  -9   75.27    7.94
   3   7  -9   70.00    7.71
   3   7  -9   52.52    7.43
   3  -7  -9   70.80    8.18
   3  -7  -9   76.22    6.63
   3  -7  -9   71.73    6.70
   3  -7  -9   78.51    9.09
  -3  -7   9   71.28    7.34
  -3   7   9   75.41    9.54
  -3   7   9   70.49    9.25
   3   7  -8    9.73    3.55
   3   7  -8   12.37    2.65
   3   7  -8   12.03    2.40
   3   7  -8   10.21    2.72
   3   7  -8    9.60    2.59
   3  -7  -8   12.68    2.52
   3  -7  -8   12.42    2.09
   3  -7  -8   13.62    2.29
   3  -7  -8   13.72    3.10
  -3  -7   8    6.95    2.20
  -3   7   8   10.70    3.28
  -3   7   8   11.45    3.16
   3   7  -7   81.58    8.66
   3   7  -7   92.89   11.07
   3   7  -7   90.59    8.83
   3   7  -7   89.06    9.28
   3   7  -7   87.92    8.15
   3  -7  -7   93.38    8.57
   3  -7  -7   87.91    8.08
   3  -7  -7   92.19    7.97
   3  -7  -7   93.42    9.64
  -3  -7   7   73.45    6.47
  -3   7   7   90.89    9.18
  -3   7   7   92.27   10.57
   3   7  -6   58.27    7.81
   3   7  -6   56.83    6.20
   3   7  -6   54.27    7.37
   3   7  -6   63.71    6.78
   3  -7  -6   54.83    5.46
   3  -7  -6   57.81    6.38
   3  -7  -6   58.54    7.08
   3  -7  -6   56.46    6.12
  -3  -7   6   48.98    5.11
  -3   7   6   55.54    6.01
  -3   7   6   56.31    7.45
   3   7  -5    3.25    1.62
   3   7  -5    5.95    1.71
   3   7  -5    4.10    2.13
   3   7  -5    4.35    1.77
   3   7  -5    5.28    1.81
   3  -7  -5    4.63    1.86
   3  -7  -5    5.62    1.71
   3  -7  -5    3.59    1.54
   3  -7  -5    4.47    1.31
  -3   7   5    4.97    2.03
  -3   7   5    5.23    1.97
   3   7  -4   36.31    5.09
   3   7  -4   37.06    5.01
   3   7  -4   44.41    6.16
   3   7  -4   43.30    4.90
   3   7  -4   45.65    5.03
   3  -7  -4   41.96    3.86
   3  -7  -4   40.37    4.97
   3  -7  -4   42.65    4.31
   3  -7  -4   42.47    5.03
  -3   7   4   40.28    4.85
  -3   7   4   43.77    5.74
   3   7  -3   14.99    2.78
   3   7  -3   15.26    2.61
   3   7  -3   12.09    2.39
   3   7  -3   14.91    3.07
   3   7  -3   13.04    2.87
   3  -7  -3   15.81    2.33
   3  -7  -3   14.33    2.76
   3  -7  -3   10.96    2.29
   3  -7  -3   17.64    2.30
   3  -7  -3   10.83    2.64
  -3   7   3   14.00    3.03
  -3   7   3   14.27    3.01
   3   7  -2   56.60    5.55
   3   7  -2   69.66    8.22
   3   7  -2   61.18    6.88
   3   7  -2   65.49    6.04
   3  -7  -2   68.88    6.68
   3  -7  -2   68.97    5.99
   3  -7  -2   65.66    5.69
   3  -7  -2   69.51    5.40
   3  -7  -2   70.12    6.63
  -3   7   2   69.58    7.44
  -3   7   2   69.98    7.08
   3   7  -1   24.05    3.92
   3   7  -1   25.57    4.26
   3   7  -1   22.29    3.84
   3   7  -1   23.68    3.82
   3  -7  -1   24.88    3.10
   3  -7  -1   25.31    3.46
   3  -7  -1   21.93    3.00
   3  -7  -1   26.76    2.66
   3  -7  -1   26.73    3.49
  -3   7   1   26.47    4.39
  -3   7   1   25.72    3.71
   3   7   0    8.74    1.75
   3   7   0   11.18    2.45
   3   7   0    7.39    2.64
   3   7   0    9.59    2.24
   3  -7   0    9.17    1.66
   3  -7   0    8.99    2.03
   3  -7   0    9.36    1.77
   3  -7   0   10.26    1.46
   3  -7   0   11.86    2.04
  -3  -7   0    8.64    1.37
  -3   7   0    9.39    2.45
  -3   7   0   11.37    2.27
   3   7   1   -0.07    0.55
   3   7   1    0.31    0.96
   3   7   1    0.20    0.88
   3   7   1    0.08    0.60
   3   7   1   -0.08    0.82
   3  -7   1   -0.06    0.60
   3  -7   1    0.05    0.73
   3  -7   1    1.63    0.60
   3  -7   1    0.40    0.67
  -3  -7  -1    0.11    0.50
  -3   7  -1    0.21    0.79
  -3   7  -1    2.67    0.80
  -3   7  -1   -0.17    1.34
   3   7   2    1.70    0.69
   3   7   2    3.89    1.06
   3   7   2    0.45    0.98
   3   7   2    0.30    0.69
   3   7   2    0.31    0.97
   3  -7   2    0.71    0.72
   3  -7   2    0.59    0.78
   3  -7   2    0.15    0.72
   3  -7   2    0.22    0.72
   3  -7   2    0.47    0.81
  -3  -7  -2    0.70    0.62
  -3   7  -2    1.95    0.84
  -3   7  -2    0.16    0.95
  -3   7  -2    1.59    1.63
   3   7   3    3.07    1.16
   3   7   3    2.25    1.75
   3   7   3    4.83    1.59
   3   7   3    5.14    1.65
   3   7   3    3.86    1.59
   3  -7   3    2.83    1.30
   3  -7   3    3.89    1.18
   3  -7   3    3.20    1.16
   3  -7   3    4.71    1.34
   3  -7   3    3.05    1.25
  -3  -7  -3    1.68    1.07
  -3   7  -3    1.98    1.40
  -3   7  -3    5.02    2.74
   3   7   4  104.05    8.57
   3   7   4   87.12   10.17
   3   7   4  102.88   10.58
   3   7   4  105.74   10.44
   3   7   4  108.16   10.86
   3  -7   4  106.82    8.17
   3  -7   4  114.27    8.34
   3  -7   4  108.24    8.87
   3  -7   4  112.36    8.52
   3  -7   4   99.14    8.78
  -3  -7  -4   96.75    7.96
  -3   7  -4  102.35    9.26
  -3   7  -4  110.03   13.66
   3   7   5    0.59    0.98
   3   7   5    1.41    1.43
   3   7   5    0.63    1.31
   3   7   5    1.89    0.95
   3   7   5    3.30    1.36
   3  -7   5    0.80    0.92
   3  -7   5    3.45    0.97
   3  -7   5    2.77    0.88
   3  -7   5    0.91    0.87
   3  -7   5    0.13    1.05
  -3  -7  -5    2.41    0.93
  -3   7  -5    0.18    0.98
  -3   7  -5    0.68    2.12
   3   7   6  234.21   18.82
   3   7   6  222.30   22.87
   3   7   6  231.45   21.35
   3   7   6  245.08   22.65
   3  -7   6  246.70   17.03
   3  -7   6  255.99   19.32
   3  -7   6  257.87   18.92
   3  -7   6  245.91   17.73
   3  -7   6  242.42   18.56
  -3  -7  -6  206.99   16.56
  -3   7  -6  229.39   18.43
  -3   7  -6  266.25   30.31
   3   7   7   71.14    7.38
   3   7   7   61.68    9.50
   3   7   7   66.20    8.37
   3   7   7   71.44    8.86
   3  -7   7   84.30    7.21
   3  -7   7   75.35    6.38
   3  -7   7   70.50    6.01
   3  -7   7   74.17    7.72
  -3  -7  -7   67.28    6.68
  -3   7  -7   66.70    6.81
  -3   7  -7   69.39    7.83
  -3   7  -7   78.87   11.49
   3   7   8   53.08    6.02
   3   7   8   47.15    5.82
   3   7   8   48.18    8.15
   3   7   8   54.60    7.76
   3  -7   8   52.30    5.22
   3  -7   8   56.14    5.64
   3  -7   8   54.09    4.71
   3  -7   8   52.93    5.67
  -3  -7  -8   49.52    5.53
  -3   7  -8   51.33    6.08
  -3   7  -8   49.26    8.82
   3   7   9   17.41    4.62
   3   7   9   16.81    4.15
   3   7   9   20.69    4.66
   3   7   9   21.42    3.51
   3  -7   9   21.75    2.93
   3  -7   9   21.30    2.94
   3  -7   9   21.45    2.57
   3  -7   9   17.43    3.15
  -3  -7  -9   17.51    3.15
  -3   7  -9   17.05    3.58
  -3   7  -9   19.29    4.96
   3   7  10  142.47   13.45
   3   7  10  117.31   15.86
   3   7  10  137.43   15.94
   3   7  10  137.43   16.00
   3  -7  10  145.73   10.36
   3  -7  10  146.09   12.42
   3  -7  10  136.57   10.71
  -3  -7 -10  125.64   10.78
  -3   7 -10  140.79   13.47
  -3   7 -10  135.90   16.24
   3   7  11   31.46    4.92
   3   7  11   28.01    5.91
   3   7  11   24.20    6.49
   3   7  11   30.96    5.96
   3  -7  11   34.34    4.51
   3  -7  11   29.06    4.37
  -3  -7 -11   29.90    4.40
  -3   7 -11   30.49    5.01
  -3   7 -11   34.61    6.24
   3   7  12   49.12    6.54
   3   7  12   38.27    8.35
   3   7  12   46.22    8.21
   3   7  12   48.70    7.78
   3  -7  12   53.29    5.13
   3  -7  12   43.43    5.48
  -3  -7 -12   42.23    4.49
  -3   7 -12   42.05    6.38
  -3   7 -12   47.85    7.38
   3   7  13   16.55    3.60
   3   7  13    8.96    3.55
   3   7  13   15.83    4.41
   3   7  13   14.56    4.26
   3  -7  13   18.46    3.29
   3  -7  13   19.54    3.04
   3  -7  13   15.79    3.34
  -3  -7 -13   12.76    3.06
  -3   7 -13   13.19    3.42
  -3   7 -13   15.90    4.23
   3   7  14   29.97    4.78
   3   7  14   26.48    6.62
   3   7  14   25.33    6.13
   3  -7  14   30.59    4.72
   3  -7  14   32.43    4.51
  -3   7 -14   26.74    5.60
   3   7  15    0.28    1.23
   3   7  15   -0.10    1.73
   3   7  15    1.24    1.64
   3  -7  15    2.46    1.11
   3  -7  15    0.45    1.06
  -3   7 -15    1.56    1.39
   3   7  16    0.39    1.95
   3   7  16    1.32    1.24
   3  -7  16    3.96    1.18
   3  -7  16    0.59    1.28
  -3   7 -16    0.62    1.46
   3   7  17    0.59    1.35
   3   7  17    0.23    1.11
   3  -7  17    0.01    0.75
   3  -7  17    0.06    0.83
  -3   7 -17    1.02    0.89
   3   7  18    2.47    1.49
   3   7  18    3.00    1.78
   3  -7  18    2.06    1.19
   3  -7  18   -0.13    1.45
  -3   7 -18    4.66    1.54
   3   7  19    0.27    1.15
   3   7  19    0.96    1.05
   3  -7  19    1.17    0.75
   3  -7  19    0.20    0.93
   3  -7  19   -0.01    0.63
  -3   7 -19    0.41    0.80
   3   7  20    0.60    1.12
   3   7  20    1.58    1.43
   3  -7  20    3.74    1.31
   3  -7  20    0.16    0.85
   3  -7  20    1.92    1.05
  -3   7 -20    3.48    1.14
   3   7  21    0.04    1.17
   3   7  21    0.02    0.98
   3  -7  21   -0.01    0.95
   3  -7  21   -0.04    0.73
  -3   7 -21    2.05    0.73
   3   7  22    0.68    0.74
   3   7  22   -0.11    0.70
   3  -7  22    0.30    0.57
  -3   7 -22   -0.06    0.54
  -3   8  22    0.60    0.94
   3   8 -21   22.03    2.46
   3  -8 -21    0.81    2.35
  -3  -8  21   18.35    1.96
  -3   8  21   20.66    3.25
  -3   8  21   -0.11    3.10
   3   8 -20    4.81    1.45
   3   8 -20    6.06    1.56
   3   8 -20    7.16    1.59
   3  -8 -20    4.15    1.95
  -3  -8  20    4.65    1.36
  -3   8  20    4.23    2.17
  -3   8  20    5.90    2.12
   3   8 -19   11.21    2.10
   3   8 -19    8.88    2.24
   3   8 -19   10.93    2.34
   3  -8 -19    6.69    2.68
  -3  -8  19   10.70    1.89
  -3   8  19   10.82    3.04
  -3   8  19    9.59    3.11
   3   8 -18    5.76    1.78
   3   8 -18    7.61    1.91
   3   8 -18    6.66    1.86
   3  -8 -18    6.72    2.24
  -3  -8  18    5.67    1.51
  -3   8  18    3.28    2.50
  -3   8  18    4.54    2.48
   3   8 -17   11.78    2.56
   3   8 -17   11.03    2.50
   3   8 -17   10.25    2.48
   3   8 -17    9.53    2.72
   3  -8 -17    9.69    2.98
  -3  -8  17    8.44    1.52
  -3   8  17    9.93    3.27
  -3   8  17    8.66    3.22
   3   8 -16    1.02    0.72
   3   8 -16    0.44    1.00
   3   8 -16    3.07    1.15
   3   8 -16    0.30    1.04
   3  -8 -16    0.66    1.23
   3  -8 -16   -0.20    0.75
  -3  -8  16    0.53    0.88
  -3   8  16    0.34    1.36
  -3   8  16    1.20    1.36
   3   8 -15   23.00    4.59
   3   8 -15   26.76    4.49
   3   8 -15   26.98    4.39
   3   8 -15   26.01    4.39
   3  -8 -15   27.20    5.22
   3  -8 -15   26.52    3.52
  -3  -8  15   24.42    3.78
  -3   8  15   27.48    5.55
  -3   8  15   25.75    5.53
   3   8 -14    1.33    1.27
   3   8 -14    1.11    1.11
   3   8 -14    0.15    1.17
   3   8 -14    3.46    1.48
   3  -8 -14    0.35    1.35
   3  -8 -14   -0.01    0.95
  -3  -8  14    0.55    0.91
  -3   8  14    0.04    1.58
  -3   8  14    3.43    1.56
   3   8 -13   80.23   10.36
   3   8 -13   84.85    9.28
   3   8 -13   88.85    9.54
   3   8 -13   78.25    9.94
   3  -8 -13   72.01   10.31
   3  -8 -13   85.54    8.47
  -3   8  13   76.73   11.29
  -3   8  13   80.10   12.73
   3   8 -12   17.50    3.88
   3   8 -12   11.25    3.35
   3   8 -12   18.64    3.49
   3   8 -12   14.28    3.70
   3   8 -12   16.84    3.43
   3  -8 -12   15.17    3.88
   3  -8 -12   16.20    3.10
  -3   8  12   17.04    4.06
  -3   8  12   14.56    4.79
   3   8 -11  197.46   17.48
   3   8 -11  208.52   20.89
   3   8 -11  203.72   18.64
   3   8 -11  189.33   19.37
   3   8 -11  205.48   18.63
   3  -8 -11  200.03   18.27
   3  -8 -11  170.43   15.50
   3  -8 -11  210.28   20.17
  -3  -8  11  176.66   16.11
  -3   8  11  189.59   20.82
  -3   8  11  182.98   19.61
   3   8 -10   12.13    3.54
   3   8 -10   12.40    2.84
   3   8 -10   11.72    2.19
   3   8 -10   12.29    2.81
   3   8 -10    8.94    3.24
   3  -8 -10   10.26    3.49
   3  -8 -10   13.64    3.07
   3  -8 -10   11.91    3.46
  -3  -8  10    9.58    2.74
  -3   8  10   16.07    3.52
  -3   8  10   10.76    3.85
   3   8  -9  137.02   15.76
   3   8  -9  128.00   12.65
   3   8  -9  119.04   12.28
   3   8  -9  132.14   12.43
   3   8  -9  119.91   12.92
   3  -8  -9  135.21   14.02
   3  -8  -9  132.49   12.89
   3  -8  -9  132.22   13.76
  -3  -8   9  115.67   11.34
  -3   8   9  136.48   14.41
  -3   8   9  119.39   14.76
   3   8  -8    3.45    2.08
   3   8  -8    1.76    1.66
   3   8  -8    3.24    1.74
   3   8  -8    2.95    1.24
   3   8  -8    3.37    1.37
   3  -8  -8    0.73    1.78
   3  -8  -8    1.85    1.75
   3  -8  -8    3.80    1.92
  -3  -8   8    2.96    1.53
  -3   8   8    5.59    1.99
  -3   8   8    2.53    2.04
   3   8  -7  190.64   18.12
   3   8  -7  213.15   23.01
   3   8  -7  215.41   19.09
   3   8  -7  204.43   18.78
   3  -8  -7  210.56   17.91
   3  -8  -7  212.78   18.71
   3  -8  -7  207.69   15.82
   3  -8  -7  211.27   20.21
  -3  -8   7  179.38   16.07
  -3   8   7  202.48   19.99
  -3   8   7  202.56   21.43
   3   8  -6    7.17    2.44
   3   8  -6    7.48    3.17
   3   8  -6    9.22    2.38
   3   8  -6    9.26    2.54
   3  -8  -6    8.99    1.83
   3  -8  -6    8.78    1.79
   3  -8  -6    9.54    2.52
   3  -8  -6    8.63    2.84
  -3  -8   6    7.22    2.18
  -3   8   6    8.05    2.67
  -3   8   6    7.71    2.91
   3   8  -5  217.95   21.82
   3   8  -5  203.54   17.46
   3   8  -5  190.96   17.58
   3   8  -5  180.53   17.15
   3  -8  -5  194.02   17.89
   3  -8  -5  206.18   17.51
   3  -8  -5  209.11   15.61
   3  -8  -5  215.98   18.34
  -3  -8   5  156.29   12.73
  -3   8   5  192.78   18.23
  -3   8   5  198.19   19.16
   3   8  -4    0.40    0.91
   3   8  -4    0.09    1.14
   3   8  -4   -0.02    1.19
   3   8  -4    4.67    1.46
   3   8  -4    2.22    1.05
   3  -8  -4    0.41    1.05
   3  -8  -4    0.80    1.01
   3  -8  -4    2.35    0.93
  -3   8   4   -0.08    1.16
  -3   8   4   -0.06    1.19
   3   8  -3    0.51    0.87
   3   8  -3    0.94    1.14
   3   8  -3   -0.07    0.87
   3   8  -3    0.40    0.94
   3   8  -3    0.00    0.67
   3  -8  -3    0.38    0.88
   3  -8  -3    0.22    0.51
   3  -8  -3    0.23    0.61
  -3   8   3    0.52    0.98
  -3   8   3    3.12    0.96
  -3   8   3    0.80    1.39
   3   8  -2    9.24    2.38
   3   8  -2   13.16    3.18
   3   8  -2    7.46    2.19
   3   8  -2    8.27    2.58
   3   8  -2   11.15    2.62
   3  -8  -2   10.22    2.44
   3  -8  -2   10.29    2.07
   3  -8  -2   10.76    2.33
  -3   8   2    9.87    2.56
  -3   8   2   12.23    2.73
  -3   8   2   10.36    3.92
   3   8  -1    8.75    1.81
   3   8  -1    9.65    2.41
   3   8  -1    8.04    2.44
   3   8  -1   11.01    2.68
   3  -8  -1    8.85    2.47
   3  -8  -1   11.29    2.10
   3  -8  -1   10.33    2.33
  -3   8   1   11.93    2.92
  -3   8   1   13.74    2.77
  -3   8   1   12.64    4.07
   3   8   0    1.93    1.04
   3   8   0    4.66    1.88
   3   8   0    0.37    1.56
   3   8   0    3.80    1.52
   3  -8   0    4.17    1.36
   3  -8   0    3.16    1.18
   3  -8   0    1.55    1.33
  -3   8   0    2.73    1.55
  -3   8   0    4.03    1.63
  -3   8   0    1.04    2.56
   3   8   1    3.78    1.22
   3   8   1    0.99    1.47
   3   8   1    0.12    1.18
   3   8   1    1.08    0.88
   3  -8   1    0.87    1.00
   3  -8   1    2.55    0.90
   3  -8   1    1.28    0.67
   3  -8   1    0.29    1.02
  -3   8  -1    0.47    1.16
  -3   8  -1    2.94    1.35
  -3   8  -1    4.10    2.20
   3   8   2   46.18    6.50
   3   8   2   44.67    5.27
   3   8   2   46.39    6.72
   3   8   2   47.98    6.51
   3  -8   2   45.36    5.49
   3  -8   2   48.63    5.50
   3  -8   2   50.81    5.22
   3  -8   2   51.68    5.54
  -3  -8  -2   59.81    6.13
  -3   8  -2   46.56    5.86
  -3   8  -2   52.87    6.07
  -3   8  -2   50.20    9.84
   3   8   3   15.32    3.52
   3   8   3   13.10    3.38
   3   8   3   15.50    3.43
   3   8   3   11.73    3.24
   3  -8   3   15.75    2.67
   3  -8   3   13.56    2.66
   3  -8   3   16.61    2.33
   3  -8   3   13.12    2.87
   3  -8   3   15.94    2.90
  -3  -8  -3   16.64    2.83
  -3   8  -3   12.26    3.03
  -3   8  -3   14.64    2.72
  -3   8  -3   15.83    4.96
   3   8   4  178.25   18.83
   3   8   4  196.00   19.91
   3   8   4  213.77   19.19
   3   8   4  205.88   18.42
   3  -8   4  224.59   16.37
   3  -8   4  220.75   17.44
   3  -8   4  205.53   17.08
   3  -8   4  248.41   17.27
   3  -8   4  204.99   17.43
  -3  -8  -4  243.30   19.72
  -3   8  -4  209.16   17.85
  -3   8  -4  217.82   26.47
   3   8   5  423.08   31.63
   3   8   5  349.01   33.65
   3   8   5  419.04   37.33
   3   8   5  288.14   32.45
   3   8   5  391.35   33.35
   3  -8   5  423.44   28.82
   3  -8   5  403.32   28.55
   3  -8   5  407.77   29.18
   3  -8   5  398.07   30.90
  -3  -8  -5  463.78   33.77
  -3   8  -5  387.65   31.20
  -3   8  -5  405.92   33.06
  -3   8  -5  434.72   45.28
   3   8   6   80.28    8.86
   3   8   6   68.18    9.94
   3   8   6   86.59   10.44
   3   8   6   87.35   10.76
   3   8   6   91.85   11.09
   3  -8   6   87.14    7.25
   3  -8   6   91.23    8.77
   3  -8   6   79.90    8.54
   3  -8   6   90.63    9.06
  -3  -8  -6   96.89   10.12
  -3   8  -6   81.99    8.30
  -3   8  -6   78.00    8.85
  -3   8  -6   79.32   12.31
   3   8   7  128.24   12.32
   3   8   7   73.85   12.64
   3   8   7  127.58   12.54
   3   8   7  138.04   14.74
   3  -8   7  138.28   11.82
   3  -8   7  134.65   12.09
   3  -8   7  137.56   10.02
   3  -8   7  134.09   11.05
  -3  -8  -7  115.67   11.25
  -3   8  -7  126.75   11.45
  -3   8  -7  130.70   12.41
  -3   8  -7  131.93   16.89
   3   8   8   65.17    7.82
   3   8   8   50.75    8.45
   3   8   8   61.24    8.69
   3   8   8   62.32    8.98
   3  -8   8   63.99    6.65
   3  -8   8   67.89    7.09
   3  -8   8   70.80    5.71
  -3  -8  -8   58.31    6.88
  -3   8  -8   59.68    6.89
  -3   8  -8   62.61    7.71
  -3   8  -8   84.88   10.56
   3   8   9    7.25    2.91
   3   8   9    8.02    2.39
   3   8   9    7.94    3.42
   3   8   9    8.16    3.15
   3  -8   9    8.98    1.63
   3  -8   9    6.11    2.15
   3  -8   9    7.53    2.09
  -3  -8  -9    8.00    2.69
  -3   8  -9    8.33    2.50
  -3   8  -9    8.29    3.66
   3   8  10    0.25    0.79
   3   8  10   -0.19    1.05
   3   8  10   -0.15    1.38
   3   8  10    1.18    1.34
   3  -8  10    0.33    0.93
   3  -8  10    0.05    0.97
  -3  -8 -10    2.58    1.14
  -3   8 -10   -0.25    1.20
  -3   8 -10    4.14    1.41
   3   8  11   56.77    9.17
   3   8  11   66.58    9.35
   3  -8  11   71.75    7.18
  -3   8 -11   44.34    9.29
   3   8  12   78.62   11.09
   3   8  12   83.03   12.01
   3  -8  12   99.04   10.06
  -3   8 -12   91.01   11.96
   3   8  13  114.26   15.14
   3   8  13  108.17   14.63
   3  -8  13  142.14   12.77
  -3   8 -13  129.95   15.56
   3   8  14    0.99    1.67
   3   8  14    2.60    2.23
   3  -8  14    5.91    1.65
  -3   8 -14    3.12    2.05
   3   8  15   30.99    6.50
   3   8  15   33.11    6.30
   3  -8  15   38.32    4.04
  -3   8 -15   38.88    6.06
   3   8  16   12.97    3.73
   3   8  16    9.10    3.41
   3  -8  16   11.77    2.44
  -3   8 -16   14.02    3.09
   3   8  17   18.34    4.78
   3   8  17   19.09    4.52
   3  -8  17   25.47    3.30
  -3   8 -17   22.04    4.04
   3   8  18    6.72    2.75
   3   8  18    8.06    2.63
   3  -8  18    8.53    1.82
  -3   8 -18    7.43    2.22
   3   8  19   48.45    7.10
   3   8  19   47.34    6.54
   3  -8  19   64.19    5.62
  -3   8 -19   54.80    5.95
   3   8  20    2.61    1.85
   3   8  20    3.60    1.55
   3  -8  20    3.61    1.21
  -3   8 -20    2.80    1.22
   3   8  21    1.02    1.68
   3  -8  21    4.70    1.19
   3   9 -20    0.08    0.71
   3  -9 -20    2.87    0.88
  -3   9  20   -0.04    1.07
   3   9 -19    3.77    1.10
   3   9 -19   -0.05    1.05
   3   9 -19    2.87    1.04
   3  -9 -19    3.54    1.36
  -3  -9  19    2.29    0.97
  -3   9  19    5.33    1.67
  -3   9  19    3.01    1.65
   3   9 -18    2.53    1.12
   3   9 -18    1.89    1.05
   3  -9 -18    2.65    1.37
  -3  -9  18    2.05    0.95
  -3   9  18    1.55    1.65
  -3   9  18    1.32    1.59
   3   9 -17   -0.03    0.78
   3   9 -17   -0.10    0.74
   3  -9 -17    2.20    0.65
   3  -9 -17    0.32    1.07
  -3  -9  17   -0.02    0.67
  -3   9  17    0.00    1.18
  -3   9  17    0.82    1.18
   3   9 -16    6.24    1.71
   3   9 -16    7.01    1.57
   3   9 -16    5.71    1.87
   3   9 -16    0.29    1.47
   3  -9 -16    6.02    2.07
   3  -9 -16    0.16    1.29
  -3  -9  16    7.13    1.41
  -3   9  16    5.18    1.68
  -3   9  16    7.48    2.29
   3   9 -15    3.12    1.48
   3   9 -15    2.18    1.38
   3   9 -15    2.47    1.29
   3   9 -15    2.75    1.53
   3  -9 -15    1.07    1.73
   3  -9 -15    2.79    1.19
  -3  -9  15    3.31    1.21
  -3   9  15    1.76    1.93
  -3   9  15    2.03    1.97
   3   9 -14    9.59    2.59
   3   9 -14   10.70    2.41
   3   9 -14    1.53    2.08
   3   9 -14   10.83    2.71
   3  -9 -14   11.56    2.99
   3  -9 -14    8.82    1.56
  -3  -9  14   10.08    2.08
  -3   9  14   12.15    3.23
  -3   9  14   11.21    3.35
   3   9 -13   31.14    4.83
   3   9 -13   29.63    4.24
   3   9 -13   24.64    4.49
   3   9 -13    7.92    3.50
   3  -9 -13   29.58    5.31
   3  -9 -13   29.63    4.04
  -3  -9  13   29.20    3.51
  -3   9  13   27.40    5.58
  -3   9  13   25.16    5.12
   3   9 -12   11.96    2.57
   3   9 -12    9.59    2.94
   3   9 -12    9.69    2.62
   3   9 -12    8.67    2.00
   3   9 -12    3.66    2.34
   3  -9 -12    9.74    3.09
   3  -9 -12   10.35    2.42
  -3   9  12    6.99    3.50
  -3   9  12   11.36    3.26
   3   9 -11    5.61    1.49
   3   9 -11    4.12    1.97
   3   9 -11    2.51    1.68
   3   9 -11    3.91    1.97
   3   9 -11    5.33    2.14
   3  -9 -11    5.30    2.30
   3  -9 -11    3.09    1.90
  -3   9  11    5.31    2.31
  -3   9  11    4.59    2.54
   3   9 -10   37.46    5.45
   3   9 -10   40.45    6.69
   3   9 -10   37.24    6.05
   3   9 -10   42.72    5.85
   3  -9 -10   35.75    6.26
   3  -9 -10   41.22    5.76
  -3   9  10   33.67    6.62
  -3   9  10   34.17    7.11
   3   9  -9    2.31    2.18
   3   9  -9    3.54    1.64
   3   9  -9    3.59    1.80
   3   9  -9    3.86    2.02
   3  -9  -9    5.52    1.99
   3  -9  -9    2.31    1.84
  -3   9   9    3.00    2.14
  -3   9   9    3.08    1.65
   3   9  -8   -0.70    0.66
   3   9  -8   -0.39    0.82
   3   9  -8    0.26    0.63
   3   9  -8   -0.02    0.75
   3  -9  -8   -0.25    0.71
   3  -9  -8    0.21    0.61
  -3   9   8   -0.10    0.72
  -3   9   8    0.83    0.81
   3   9  -7   26.10    5.34
   3   9  -7   27.47    4.17
   3   9  -7   22.05    3.57
   3   9  -7   22.73    3.54
   3  -9  -7   26.20    4.91
   3  -9  -7   25.64    4.21
   3  -9  -7   23.77    4.94
  -3  -9   7   23.21    3.86
  -3   9   7   23.85    4.82
  -3   9   7   23.94    5.32
   3   9  -6    3.10    1.89
   3   9  -6    4.93    2.43
   3   9  -6    3.93    1.74
   3   9  -6    4.37    1.89
   3  -9  -6    2.47    1.46
   3  -9  -6    4.36    1.37
   3  -9  -6    2.70    1.84
  -3  -9   6    3.42    1.51
  -3   9   6    3.20    2.05
  -3   9   6    7.19    2.24
   3   9  -5   18.57    4.62
   3   9  -5   18.08    3.33
   3   9  -5   18.56    3.77
   3   9  -5   13.97    3.67
   3  -9  -5   18.26    2.82
   3  -9  -5   18.34    3.07
   3  -9  -5   17.12    3.36
  -3  -9   5   12.81    2.16
  -3   9   5   18.30    3.68
  -3   9   5   16.56    4.28
  -3   9   5   16.65    5.34
   3   9  -4  120.67   13.33
   3   9  -4  132.52   16.42
   3   9  -4  136.13   13.25
   3   9  -4  127.10   13.63
   3  -9  -4  131.06   11.79
   3  -9  -4  131.76   12.81
   3  -9  -4  136.89   12.20
  -3   9   4  129.36   13.65
  -3   9   4  140.87   14.87
  -3   9   4  139.73   19.04
   3   9  -3    2.03    1.24
   3   9  -3    0.85    1.87
   3   9  -3    3.78    1.50
   3   9  -3    0.36    1.65
   3   9  -3    1.80    1.08
   3  -9  -3    3.73    1.47
   3  -9  -3    0.99    1.14
   3  -9  -3    1.41    1.35
  -3   9   3    2.72    1.49
  -3   9   3    3.50    1.69
  -3   9   3    3.62    2.23
   3   9  -2   13.11    3.21
   3   9  -2   19.54    3.38
   3   9  -2   14.28    3.18
   3   9  -2   21.63    3.57
   3   9  -2   17.54    3.51
   3  -9  -2   15.86    2.59
   3  -9  -2   17.32    2.91
   3  -9  -2   19.04    3.23
  -3   9   2   18.52    3.42
  -3   9   2   18.65    4.00
  -3   9   2   20.09    5.43
   3   9  -1    6.36    1.89
   3   9  -1    3.92    2.49
   3   9  -1    5.55    2.03
   3   9  -1    2.74    1.98
   3  -9  -1    4.72    1.79
   3  -9  -1    5.35    1.53
   3  -9  -1    4.62    1.75
  -3   9   1    3.96    1.88
  -3   9   1    4.74    2.10
  -3   9   1    3.39    3.06
   3   9   0    2.61    1.16
   3   9   0    0.39    1.44
   3   9   0   -0.01    1.18
   3   9   0    0.47    1.03
   3  -9   0    2.29    0.97
   3  -9   0    1.86    0.84
   3  -9   0   -0.07    0.88
   3  -9   0    0.28    0.97
  -3   9   0    0.06    1.16
  -3   9   0    0.27    1.13
  -3   9   0    0.12    1.79
   3   9   1   25.04    4.63
   3   9   1   29.69    5.09
   3   9   1   32.52    5.00
   3   9   1   32.22    5.36
   3  -9   1   29.95    4.33
   3  -9   1   35.46    4.42
   3  -9   1   35.22    3.33
   3  -9   1   32.66    4.35
  -3   9  -1   32.38    4.75
  -3   9  -1   33.20    4.83
  -3   9  -1   34.68    7.08
   3   9   2   46.70    5.61
   3   9   2   53.90    6.81
   3   9   2   45.26    7.39
   3   9   2   54.84    7.19
   3  -9   2   54.99    5.17
   3  -9   2   52.94    5.33
   3  -9   2   53.01    5.84
   3  -9   2   49.15    6.02
  -3   9  -2   50.89    6.32
  -3   9  -2   57.05    6.34
  -3   9  -2   61.04    9.57
   3   9   3    3.35    1.11
   3   9   3    4.43    1.30
   3   9   3    0.10    1.14
   3   9   3    0.21    1.19
   3  -9   3    1.77    0.79
   3  -9   3   -0.04    0.70
   3  -9   3    0.17    0.87
   3  -9   3   -0.51    0.93
  -3   9  -3    0.34    1.01
  -3   9  -3    0.06    0.92
  -3   9  -3   -0.08    1.21
   3   9   4    6.20    2.81
   3   9   4    6.42    1.96
   3   9   4    6.15    2.75
   3   9   4    7.61    2.74
   3  -9   4   10.96    1.80
   3  -9   4    9.31    2.26
   3  -9   4    8.75    2.12
   3  -9   4    8.60    2.24
  -3  -9  -4    7.85    2.17
  -3   9  -4    6.81    2.23
  -3   9  -4    8.88    2.54
   3   9   5   35.88    6.05
   3   9   5   31.96    4.42
   3   9   5   34.72    5.86
   3   9   5   32.57    5.85
   3  -9   5   36.25    3.80
   3  -9   5   33.87    5.14
   3  -9   5   33.37    4.50
   3  -9   5   31.29    4.74
  -3  -9  -5   33.00    4.77
  -3   9  -5   34.99    5.01
  -3   9  -5   39.43    7.16
   3   9   6   61.33    9.57
   3   9   6   74.65    9.63
   3   9   6   73.53   10.04
   3   9   6   71.40    9.29
   3  -9   6   70.72    8.12
   3  -9   6   80.20    8.24
   3  -9   6   70.71    8.10
   3  -9   6   76.58    6.44
  -3  -9  -6   66.89    8.05
  -3   9  -6   72.15    7.88
  -3   9  -6   68.21   10.44
   3   9   7   15.90    4.21
   3   9   7   17.07    4.59
   3   9   7   20.41    4.23
   3  -9   7   18.85    2.41
   3  -9   7   22.87    3.43
   3  -9   7   19.10    3.55
  -3   9  -7   18.18    3.63
  -3   9  -7   23.22    5.14
   3   9   8   84.81   11.25
   3   9   8   77.94   10.27
   3  -9   8   79.42    6.97
   3  -9   8   85.79    6.95
  -3   9  -8   78.11    8.58
  -3   9  -8   80.03    9.83
   3   9   9    0.99    2.04
   3   9   9    2.55    1.88
   3  -9   9    3.90    1.49
  -3   9  -9    3.18    1.55
  -3   9  -9    2.80    2.41
   3   9  10   20.39    4.77
   3   9  10   17.41    4.56
   3  -9  10   23.99    3.67
  -3   9 -10   24.50    5.13
   3   9  11   10.63    3.95
   3   9  11   11.51    3.66
   3  -9  11   17.44    3.10
  -3   9 -11   14.86    4.07
   3   9  12    4.11    1.83
   3   9  12    4.42    2.36
   3  -9  12    4.55    1.90
  -3   9 -12    8.02    2.57
   3   9  13    5.67    2.90
   3   9  13    7.73    2.62
   3  -9  13    7.60    2.18
  -3   9 -13    9.60    2.91
   3   9  14    1.82    2.18
   3   9  14    4.38    2.03
   3  -9  14    3.20    1.53
  -3   9 -14    5.61    1.98
   3   9  15    7.76    3.19
   3   9  15    9.27    2.76
   3  -9  15   11.06    2.22
  -3   9 -15    9.46    2.74
   3   9  16    1.45    1.81
   3   9  16    5.60    1.76
   3  -9  16    2.39    0.92
  -3   9 -16    4.09    1.58
   3   9  17    0.26    1.81
   3   9  17    1.85    1.49
   3  -9  17    3.90    1.08
  -3   9 -17    2.50    1.38
   3   9  18    0.40    1.06
   3   9  18    1.46    0.87
   3  -9  18    0.01    0.62
  -3   9 -18    0.23    0.71
   3   9  19   -0.07    0.62
   3  -9  19    0.27    0.40
  -3   9 -19   -0.18    0.42
   3 -10 -18    0.41    1.26
  -3 -10  18    1.78    1.13
  -3  10  18   12.90    1.62
  -3  10  18    0.61    1.49
   3  10 -17    2.78    1.13
   3  10 -17    4.75    1.36
   3 -10 -17    2.17    1.42
  -3 -10  17    2.36    1.00
  -3  10  17    3.50    1.70
  -3  10  17    4.00    1.76
   3  10 -16    9.01    1.70
   3  10 -16    9.47    1.87
   3  10 -16    2.45    2.09
   3  10 -16    7.74    1.38
   3 -10 -16    9.28    2.14
   3 -10 -16    0.07    1.45
  -3 -10  16   10.94    1.57
  -3  10  16    9.60    2.42
  -3  10  16   12.84    2.72
   3  10 -15   11.41    1.98
   3  10 -15    9.51    1.86
   3  10 -15    0.08    1.72
   3  10 -15    8.87    1.91
   3 -10 -15    9.57    2.53
   3 -10 -15    2.29    1.53
  -3 -10  15   10.97    1.70
  -3  10  15    8.67    2.52
  -3  10  15   13.77    2.97
   3  10 -14    3.89    1.90
   3  10 -14    5.77    1.80
   3  10 -14    5.20    1.71
   3 -10 -14    5.05    1.61
   3 -10 -14    6.69    1.67
  -3 -10  14    6.66    1.63
  -3  10  14    4.73    2.26
  -3  10  14    5.22    2.88
   3  10 -13   22.08    3.91
   3  10 -13   21.85    3.53
   3  10 -13   18.72    3.64
   3 -10 -13   22.68    4.19
   3 -10 -13   21.51    3.23
  -3 -10  13   22.03    3.19
  -3  10  13   20.03    4.21
  -3  10  13   18.31    4.99
   3  10 -12    2.56    1.18
   3  10 -12    0.27    1.06
   3  10 -12    0.31    1.23
   3 -10 -12    3.06    1.25
   3 -10 -12    0.56    1.03
  -3 -10  12   -0.06    0.90
  -3  10  12    3.96    1.47
  -3  10  12    0.09    1.50
   3  10 -11    0.89    1.33
   3  10 -11    2.48    1.37
   3  10 -11    0.98    1.24
   3  10 -11    1.74    1.33
   3 -10 -11    0.71    1.48
   3 -10 -11    1.59    1.22
  -3  10  11    2.41    1.72
  -3  10  11    3.18    1.66
   3  10 -10    1.22    1.31
   3  10 -10    3.05    1.41
   3  10 -10    3.45    1.62
   3  10 -10    2.49    1.55
   3 -10 -10    2.85    1.73
   3 -10 -10    3.02    1.55
  -3  10  10    5.22    2.01
  -3  10  10    1.98    2.17
   3  10  -9    2.80    1.98
   3  10  -9    3.05    1.68
   3  10  -9    3.82    1.31
   3  10  -9    4.16    1.88
   3 -10  -9    4.19    2.05
   3 -10  -9    4.49    1.92
  -3  10   9    4.97    2.15
  -3  10   9    4.40    2.59
   3  10  -8   12.72    3.44
   3  10  -8   15.51    3.14
   3  10  -8   16.70    3.12
   3  10  -8   14.24    3.39
   3 -10  -8   17.67    3.54
   3 -10  -8   15.76    2.53
  -3  10   8   15.71    3.86
  -3  10   8   16.43    4.63
   3  10  -7   61.82    7.53
   3  10  -7   68.72    9.56
   3  10  -7   63.44    7.80
   3  10  -7   58.18    7.46
   3 -10  -7   68.78    8.13
   3 -10  -7   71.04    8.00
  -3  10   7   64.73    8.54
  -3  10   7   69.15    8.27
   3  10  -6    0.71    1.24
   3  10  -6   -0.26    0.90
   3  10  -6    2.46    0.90
   3  10  -6    0.29    1.01
   3 -10  -6   -0.10    1.01
   3 -10  -6   -0.55    0.86
  -3  10   6    0.38    1.03
  -3  10   6    0.23    0.84
   3  10  -5   54.95    8.50
   3  10  -5   52.44    6.64
   3  10  -5   50.91    7.10
   3  10  -5   50.83    7.06
   3 -10  -5   55.82    7.28
   3 -10  -5   56.07    5.61
  -3  10   5   51.99    7.53
  -3  10   5   62.02    8.86
   3  10  -4    6.99    2.67
   3  10  -4    9.91    3.41
   3  10  -4    9.39    2.50
   3  10  -4   10.63    2.68
   3 -10  -4    8.83    2.55
   3 -10  -4    9.34    2.29
  -3  10   4    8.37    2.74
  -3  10   4    8.31    3.07
   3  10  -3    3.38    2.88
   3  10  -3    5.36    2.05
   3  10  -3    7.24    2.31
   3 -10  -3    7.89    2.14
   3 -10  -3    5.88    1.87
  -3  10   3    5.34    2.22
  -3  10   3    8.05    2.54
   3  10  -2   20.10    4.09
   3  10  -2   20.56    4.86
   3  10  -2   21.63    4.08
   3 -10  -2   22.70    3.82
   3 -10  -2   22.03    3.32
  -3  10   2   22.17    3.94
  -3  10   2   21.34    4.34
  -3  10   2   21.11    5.12
   3  10  -1   11.43    2.91
   3  10  -1    8.67    2.14
   3  10  -1   11.52    3.38
   3 -10  -1   11.18    2.28
   3 -10  -1   12.72    2.50
  -3  10   1    9.75    2.74
  -3  10   1    9.49    2.97
  -3  10   1   14.90    3.75
   3  10   0   13.70    4.11
   3  10   0   15.56    3.77
   3  10   0   18.79    3.69
   3 -10   0   17.49    3.20
   3 -10   0   17.54    2.82
  -3  10   0   15.14    3.39
  -3  10   0   17.43    3.42
  -3  10   0   16.11    3.39
   3  10   1   14.32    4.07
   3  10   1   14.14    2.92
   3  10   1   17.75    3.54
   3 -10   1   18.93    3.30
   3 -10   1   16.65    2.03
  -3  10  -1   15.20    3.22
  -3  10  -1   14.27    3.34
  -3  10  -1   16.59    4.54
   3  10   2   49.74    7.11
   3  10   2   46.78    7.21
   3  10   2   49.86    6.73
   3 -10   2   48.34    5.80
   3 -10   2   50.87    5.05
  -3  10  -2   45.51    5.85
  -3  10  -2   49.55    6.48
  -3  10  -2   45.77    7.61
   3  10   3   26.58    4.64
   3  10   3   23.18    4.94
   3  10   3   27.19    4.83
   3 -10   3   23.86    3.99
   3 -10   3   25.67    3.22
  -3  10  -3   26.08    3.90
  -3  10  -3   25.76    4.17
  -3  10  -3   23.45    5.42
   3  10   4    0.23    1.43
   3  10   4    0.06    1.51
   3  10   4    0.38    1.35
   3 -10   4    1.59    0.84
   3 -10   4    0.75    1.14
  -3  10  -4    3.50    1.21
  -3  10  -4    1.57    1.67
   3  10   5   51.01    7.97
   3  10   5   48.01    7.25
   3  10   5   50.34    7.27
   3 -10   5   54.41    6.23
   3 -10   5   51.21    4.99
  -3  10  -5   48.27    6.33
  -3  10  -5   49.58    8.15
   3  10   6    3.70    2.18
   3  10   6    4.05    2.16
   3  10   6    3.11    2.05
   3 -10   6    3.17    1.16
   3 -10   6    5.43    1.67
  -3  10  -6    5.43    2.09
  -3  10  -6    6.01    2.46
   3  10   7   21.20    4.51
   3  10   7   26.94    4.68
   3 -10   7   21.70    3.60
   3 -10   7   23.92    2.92
  -3  10  -7   24.13    3.76
  -3  10  -7   23.33    5.30
   3  10   8   17.37    3.32
   3  10   8   18.46    3.97
   3 -10   8   16.41    2.82
  -3  10  -8   15.44    3.21
  -3  10  -8   21.43    4.64
   3  10   9   23.61    5.14
   3  10   9   24.24    4.53
   3 -10   9   26.42    3.83
  -3  10  -9   25.20    4.15
  -3  10  -9   27.88    5.50
   3  10  10   16.21    4.10
   3  10  10   16.21    3.73
   3 -10  10   19.36    3.13
  -3  10 -10   20.21    4.17
   3  10  11   45.23    7.59
   3  10  11   40.62    6.54
   3 -10  11   56.60    6.12
  -3  10 -11   48.45    7.43
   3  10  12   10.42    3.72
   3  10  12   12.96    3.11
   3 -10  12   14.64    2.58
  -3  10 -12   11.52    3.36
   3  10  13   20.46    5.04
   3  10  13   19.64    4.19
   3 -10  13   22.61    3.65
  -3  10 -13   41.45    4.93
   3  10  14    7.23    3.23
   3  10  14    9.52    2.64
   3 -10  14   13.51    2.23
  -3  10 -14   10.70    2.85
   3  10  15    3.26    2.28
   3  10  15    5.46    1.90
   3 -10  15    5.79    1.42
  -3  10 -15    4.85    1.88
   3  10  16    4.76    2.58
   3  10  16    4.97    2.07
   3 -10  16    9.80    1.63
  -3  10 -16    9.90    2.07
   3  10  17    2.25    1.74
   3 -10  17    5.65    1.31
  -3  10 -17    6.31    1.48
   3  11 -15    2.12    0.83
   3 -11 -15    0.63    1.04
   3 -11 -15   -0.16    0.73
  -3 -11  15    2.15    0.74
  -3  11  15    0.63    1.13
  -3  11  15    4.21    1.57
   3  11 -14    2.93    0.92
   3  11 -14    0.38    0.94
   3  11 -14    0.02    0.79
   3 -11 -14    1.38    1.09
   3 -11 -14    2.90    0.87
  -3 -11  14    0.38    0.86
  -3  11  14    1.37    1.24
  -3  11  14    2.80    1.38
   3  11 -13    1.83    1.04
   3  11 -13    0.01    0.89
   3  11 -13    0.43    1.09
   3 -11 -13    0.43    1.22
   3 -11 -13    2.61    0.94
  -3 -11  13    3.38    0.93
  -3  11  13    3.19    1.38
  -3  11  13    1.44    1.44
   3  11 -12    2.38    0.73
   3  11 -12    0.52    0.81
   3  11 -12    0.23    0.83
   3 -11 -12   -0.20    0.88
   3 -11 -12    0.10    0.74
  -3 -11  12    0.14    0.65
  -3  11  12    0.31    0.97
  -3  11  12   -0.16    1.03
   3  11 -11   15.45    2.98
   3  11 -11   14.43    3.10
   3 -11 -11   16.08    3.28
   3 -11 -11   18.08    2.72
  -3 -11  11   13.27    2.55
  -3  11  11   14.26    3.45
  -3  11  11   14.66    3.74
   3  11 -10    0.83    1.06
   3  11 -10   -0.05    0.93
   3  11 -10    0.80    1.17
   3 -11 -10    1.46    1.18
   3 -11 -10    1.63    1.04
  -3  11  10    2.75    1.31
  -3  11  10    1.06    1.34
   3  11  -9    4.45    1.99
   3  11  -9    4.12    1.81
   3  11  -9    1.11    1.50
   3  11  -9    3.81    1.61
   3 -11  -9    6.42    1.77
   3 -11  -9    5.01    1.55
  -3  11   9    3.08    2.02
  -3  11   9    4.35    2.18
   3  11  -8   11.67    3.43
   3  11  -8   15.77    3.42
   3  11  -8   15.99    2.27
   3 -11  -8   17.72    3.27
   3 -11  -8   12.56    2.93
  -3  11   8   13.93    3.43
  -3  11   8   12.91    3.86
   3  11  -7   42.69    6.42
   3  11  -7   35.83    4.45
   3  11  -7   44.92    5.85
   3 -11  -7   49.92    5.90
   3 -11  -7   46.74    5.81
  -3  11   7   41.22    6.08
  -3  11   7   45.32    6.90
   3  11  -6    2.34    0.74
   3  11  -6    0.26    0.86
   3  11  -6    0.01    1.03
   3  11  -6    0.15    0.84
   3 -11  -6   -0.54    0.91
   3 -11  -6   -0.37    0.80
  -3  11   6    0.42    0.96
  -3  11   6   -0.25    1.06
   3  11  -5    7.09    2.65
   3  11  -5    2.22    2.09
   3  11  -5    6.93    1.67
   3  11  -5   10.64    2.27
   3 -11  -5    9.82    2.45
   3 -11  -5    9.73    2.12
  -3  11   5    6.45    2.55
  -3  11   5    9.92    2.66
   3  11  -4    0.62    1.36
   3  11  -4    3.16    1.04
   3  11  -4    1.08    1.13
   3  11  -4    0.73    1.15
   3 -11  -4    0.24    1.00
   3 -11  -4    0.37    1.01
  -3  11   4    1.24    1.20
  -3  11   4    0.34    1.29
   3  11  -3   -0.24    0.77
   3  11  -3    0.20    0.87
   3  11  -3    0.41    0.91
   3 -11  -3   -0.03    0.83
   3 -11  -3    0.04    0.77
  -3  11   3   -0.04    0.94
  -3  11   3    3.53    1.01
   3  11  -2    0.61    1.26
   3  11  -2    0.69    1.08
   3  11  -2    0.07    1.03
   3 -11  -2    1.00    0.99
   3 -11  -2    0.51    0.60
  -3  11   2    2.90    1.13
  -3  11   2    0.89    1.17
   3  11  -1    6.75    1.90
   3  11  -1    1.10    1.61
   3  11  -1    2.27    1.53
   3 -11  -1    2.72    1.42
   3 -11  -1    2.42    1.22
  -3  11   1    3.49    1.60
  -3  11   1    1.96    1.57
   3  11   0   33.10    6.45
   3  11   0   37.20    5.66
   3  11   0   38.97    5.64
   3 -11   0   41.59    4.26
   3 -11   0   39.86    4.30
  -3  11   0   43.19    5.46
  -3  11   0   38.57    5.77
   3  11   1   21.22    3.73
   3  11   1   21.03    4.03
   3  11   1   20.78    4.50
   3 -11   1   21.85    2.76
   3 -11   1   19.55    3.20
  -3  11  -1   20.42    2.75
  -3  11  -1   20.71    3.55
  -3  11  -1    0.07    3.74
   3  11   2    4.88    2.47
   3  11   2    5.50    2.10
   3  11   2    5.91    2.03
   3 -11   2    5.60    1.22
   3 -11   2    5.93    1.39
  -3  11  -2    7.20    1.99
  -3  11  -2    5.42    2.10
  -3  11  -2   -0.11    2.21
   3  11   3    6.66    2.82
   3  11   3    5.63    2.35
   3  11   3    8.26    2.55
   3 -11   3    6.99    2.08
   3 -11   3    9.07    1.67
  -3  11  -3    8.48    2.16
  -3  11  -3    4.27    2.58
   3  11   4    2.88    1.70
   3  11   4    0.73    1.42
   3  11   4    1.16    1.39
   3 -11   4    1.05    1.21
   3 -11   4    2.66    0.95
  -3  11  -4    2.58    1.25
  -3  11  -4    3.13    1.68
   3  11   5    0.60    1.30
   3  11   5   -0.36    1.33
   3  11   5   -0.07    1.13
   3 -11   5    2.05    0.77
   3 -11   5    2.67    0.90
  -3  11  -5   -0.11    1.07
  -3  11  -5   -0.05    1.39
   3  11   6    2.82    1.93
   3  11   6    3.75    1.76
   3  11   6    2.97    1.91
   3 -11   6    3.68    0.95
  -3  11  -6    3.04    1.54
  -3  11  -6    5.62    2.03
   3  11   7    6.67    2.37
   3  11   7    7.39    2.50
   3 -11   7    7.86    1.27
  -3  11  -7    8.03    2.03
  -3  11  -7    7.48    2.78
   3  11   8   -0.02    1.05
   3  11   8   -0.38    0.87
   3 -11   8    0.21    0.69
  -3  11  -8    2.47    0.88
  -3  11  -8   -0.33    1.02
   3  11   9    0.17    0.95
   3  11   9    0.20    1.03
   3 -11   9    0.85    0.74
  -3  11  -9    0.85    1.06
   3  11  10    8.60    2.63
   3  11  10    5.53    2.32
   3 -11  10    6.72    1.87
  -3  11 -10    8.23    2.43
   3  11  11   14.08    3.62
   3  11  11   13.73    3.61
   3 -11  11   18.87    2.67
  -3  11 -11   16.88    3.65
   3  11  12   16.59    3.25
   3  11  12   14.60    3.59
   3 -11  12   22.66    2.77
  -3  11 -12   19.94    3.42
   3  11  13    1.73    1.60
   3  11  13    3.22    1.71
   3 -11  13    4.14    1.21
  -3  11 -13    3.33    1.52
   3  11  14    0.53    1.30
   3 -11  14    3.66    0.91
  -3  11 -14    1.07    1.19
   3  11  15    2.03    1.56
   3 -11  15    5.32    1.11
  -3  11 -15    4.93    1.41
   3  12 -12    6.16    1.51
   3 -12 -12    7.84    2.02
   3 -12 -12    7.46    1.50
  -3 -12  12    7.70    1.39
  -3  12  12    5.00    1.80
  -3  12  12    5.49    2.04
   3  12 -11    1.98    0.77
   3  12 -11    0.04    0.77
   3 -12 -11    0.58    1.03
   3 -12 -11    0.39    0.75
  -3 -12  11    0.24    0.69
  -3  12  11    2.39    0.95
  -3  12  11    0.10    1.04
   3  12 -10   13.87    2.65
   3  12 -10   11.52    3.10
   3 -12 -10   19.05    2.61
   3 -12 -10   15.49    2.59
  -3 -12  10   16.42    2.26
  -3  12  10   13.19    2.83
  -3  12  10   14.47    3.22
   3  12  -9    2.00    0.69
   3  12  -9   -0.39    0.70
   3  12  -9    0.00    0.68
   3 -12  -9   -0.07    0.66
   3 -12  -9   -0.18    0.63
  -3 -12   9    0.14    0.57
  -3  12   9    0.07    0.73
  -3  12   9    0.16    0.81
   3  12  -8   -0.27    1.27
   3  12  -8    2.75    1.46
   3  12  -8    4.83    1.50
   3 -12  -8    4.63    1.34
   3 -12  -8    3.10    1.28
  -3  12   8    3.03    1.49
  -3  12   8    4.06    1.66
   3  12  -7    3.52    1.56
   3  12  -7    2.87    1.32
   3  12  -7    0.77    1.83
   3 -12  -7    2.78    1.25
   3 -12  -7    4.06    1.35
  -3  12   7    3.03    1.54
  -3  12   7    4.48    1.71
   3  12  -6    4.37    1.63
   3  12  -6    1.34    1.60
   3  12  -6    4.53    1.52
   3 -12  -6    3.98    1.36
   3 -12  -6    2.32    1.45
  -3  12   6    3.09    1.68
  -3  12   6    8.01    1.92
   3  12  -5    3.72    1.90
   3  12  -5    2.84    1.76
   3  12  -5    7.37    1.62
   3 -12  -5    3.85    1.61
   3 -12  -5    4.96    1.50
  -3  12   5    4.25    1.81
  -3  12   5    4.60    1.95
   3  12  -4   21.54    3.36
   3  12  -4   20.90    4.05
   3  12  -4   15.02    3.47
   3 -12  -4   19.85    3.32
   3 -12  -4   22.47    2.87
  -3  12   4   19.01    3.49
  -3  12   4   20.87    3.90
   3  12  -3    2.42    1.65
   3  12  -3    5.25    1.99
   3  12  -3    3.19    1.57
   3 -12  -3    5.57    1.59
   3 -12  -3    4.63    1.38
  -3  12   3    3.89    1.80
  -3  12   3    6.08    1.97
   3  12  -2    0.36    0.99
   3  12  -2    0.51    1.31
   3  12  -2    0.28    1.21
   3 -12  -2    0.39    0.91
   3 -12  -2    0.94    0.86
  -3  12   2    3.74    1.11
  -3  12   2    2.59    1.24
   3  12  -1    0.35    1.23
   3  12  -1    4.10    1.58
   3  12  -1    0.64    1.20
   3 -12  -1    2.69    0.93
   3 -12  -1    1.09    1.09
  -3  12   1    1.20    1.27
  -3  12   1    2.97    1.29
   3  12   0    2.26    1.26
   3  12   0    4.20    1.60
   3  12   0    1.65    1.22
   3 -12   0    1.46    1.12
   3 -12   0    1.87    0.91
  -3  12   0    1.39    1.33
  -3  12   0    1.11    1.30
   3  12   1    3.80    1.81
   3  12   1    2.17    1.36
   3  12   1    1.21    1.52
   3 -12   1    4.76    1.29
   3 -12   1    2.74    1.03
  -3  12  -1    4.38    1.59
  -3  12  -1    0.53    1.48
   3  12   2    0.03    2.10
   3  12   2    2.95    1.97
   3  12   2    4.48    1.64
   3 -12   2    5.66    1.56
   3 -12   2    5.31    1.24
  -3  12  -2    7.85    1.76
   3  12   3    0.10    1.29
   3  12   3    2.30    1.03
   3  12   3    0.96    1.28
   3 -12   3    1.01    0.90
   3 -12   3    0.63    0.70
  -3  12  -3    2.75    1.16
   3  12   4    3.35    1.72
   3  12   4    2.57    1.38
   3  12   4    0.05    1.83
   3 -12   4    0.17    1.12
  -3  12  -4    9.42    1.45
  -3  12  -4    4.02    1.62
   3  12   5    3.35    1.98
   3  12   5    4.46    1.83
   3  12   5    6.33    1.63
   3 -12   5    5.11    0.95
  -3  12  -5    4.75    1.65
  -3  12  -5    0.99    1.77
   3  12   6   18.99    3.18
   3  12   6   20.30    3.03
   3 -12   6   21.29    2.52
  -3  12  -6   19.82    3.06
  -3  12  -6    0.02    3.09
   3  12   7    3.01    1.35
   3  12   7    2.07    1.48
   3 -12   7    4.36    1.17
  -3  12  -7    2.63    1.34
  -3  12  -7    2.50    1.57
   3  12   8    2.43    1.69
   3  12   8    3.95    1.46
   3 -12   8    6.44    1.39
  -3 -12  -8    3.79    1.22
  -3  12  -8    2.47    1.74
   3  12   9    0.11    0.87
   3  12   9   -0.04    1.19
   3 -12   9    0.22    0.80
  -3 -12  -9    1.68    0.72
  -3  12  -9    2.19    0.95
   3  12  10    0.15    0.53
   3 -12  10   -0.08    0.44
  -3  12 -10    0.10    0.50
   3  12  11    0.54    1.17
   3 -12  11    3.00    0.91
   3  13  -6    0.38    0.85
   3 -13  -6    0.24    0.90
   3 -13  -6    1.45    0.63
  -3 -13   6    0.54    0.61
   3  13  -5    2.05    0.75
   3 -13  -5   -0.03    0.62
   3 -13  -5   -0.05    0.51
  -3 -13   5    0.20    0.52
  -3  13   5    0.48    0.72
   3  13  -4    2.37    0.74
   3  13  -4   -0.27    0.94
   3 -13  -4    0.00    0.73
   3 -13  -4   -0.03    0.62
  -3  13   4    2.89    1.15
   3  13  -3   -0.05    1.07
   3  13  -3    0.04    0.84
   3  13  -3    2.14    0.74
   3 -13  -3   -0.27    0.76
   3 -13  -3   -0.02    0.72
  -3  13   3    2.03    0.86
   3  13  -2    0.02    0.79
   3  13  -2    0.06    0.68
   3  13  -2    0.03    0.61
   3 -13  -2   -0.03    0.61
   3 -13  -2    0.17    0.49
  -3  13   2    2.21    0.77
   3  13  -1    1.71    1.04
   3  13  -1    3.47    1.29
   3  13  -1    0.14    1.15
   3 -13  -1    2.38    1.04
  -3  13   1    2.52    1.18
   3  13   0    0.72    1.16
   3  13   0   -0.22    1.44
   3  13   0    2.58    1.10
   3 -13   0    4.25    1.04
  -3  13   0    2.99    1.22
   3  13   1    3.22    1.02
   3  13   1    0.31    0.77
   3  13   1    0.01    0.83
   3 -13   1   -0.35    0.75
  -3  13  -1    1.98    0.87
   3  13   2    1.45    1.46
   3  13   2    2.10    0.90
   3  13   2    0.36    1.05
   3 -13   2    2.20    0.88
   3  13   3   -0.01    0.52
   3 -13   3    0.09    0.39
   3 -13   4    4.62    1.16
   3 -13   5    0.31    0.51
   3 -13   6    4.96    1.25
   4   0 -25    0.26    0.65
  -4   0  25   -0.01    0.55
   4   0 -24    0.31    1.06
   4   0 -24    1.99    0.91
  -4   0  24    0.10    0.89
   4   0 -23    1.90    0.85
   4   0 -23    0.12    1.07
   4   0 -23    0.03    0.89
   4   0 -22   20.33    3.02
   4   0 -22   16.83    3.64
   4   0 -22   19.71    3.18
   4   0 -21    0.01    0.45
   4   0 -21   -0.02    0.62
   4   0 -21   -0.03    0.55
   4   0 -20  134.14   15.15
   4   0 -20  139.74   13.46
   4   0 -20  136.96   14.59
   4   0 -19    1.01    0.86
   4   0 -19    0.05    0.78
   4   0 -19   -0.05    0.89
   4   0 -18  220.87   19.38
   4   0 -18  217.38   23.38
   4   0 -18  212.32   20.69
   4   0 -17    0.60    0.69
   4   0 -17   -0.03    0.46
   4   0 -17   -0.11    0.87
   4   0 -17   -0.09    0.75
   4   0 -16   42.08    7.71
   4   0 -16   45.75    5.93
   4   0 -16   42.86    7.30
   4   0 -16   45.07    6.39
   4   0 -15    0.25    1.77
   4   0 -15   -0.01    1.15
   4   0 -15   -0.09    1.51
   4   0 -15    4.63    1.30
   4   0 -14  185.82   19.87
   4   0 -14  201.99   20.35
   4   0 -14  191.70   17.84
   4   0 -14  177.38   15.18
  -4   0  14  180.26   14.39
   4   0 -13    2.10    0.77
   4   0 -13    0.80    1.27
   4   0 -13   -0.23    0.95
   4   0 -13    0.12    1.05
  -4   0  13   -0.02    0.67
   4   0 -12   19.28    3.19
   4   0 -12   21.76    3.90
   4   0 -12   19.76    3.54
   4   0 -12   25.21    3.66
  -4   0  12   19.31    2.49
   4   0 -11   -0.21    1.22
   4   0 -11   -0.11    1.29
   4   0 -11    3.62    1.22
   4   0 -11    2.23    1.01
  -4   0  11    2.06    0.81
   4   0 -10   59.70    7.01
   4   0 -10   79.06    7.17
   4   0 -10   78.28    6.80
   4   0 -10   78.33    7.93
  -4   0  10   80.19    5.79
   4   0  -9    0.09    0.61
   4   0  -9    0.09    0.42
   4   0  -9    0.37    0.60
   4   0  -9   -0.13    0.60
   4   0  -8   13.21    2.58
   4   0  -8   16.57    2.75
   4   0  -8   15.92    2.73
   4   0  -8   21.05    2.80
  -4   0   8   16.38    1.64
   4   0  -7    0.15    0.50
   4   0  -7    0.12    0.55
   4   0  -7    0.87    0.56
   4   0  -7    0.03    0.56
   4   0  -7    0.07    0.39
  -4   0   7    0.02    0.31
   4   0  -6  220.92   15.36
   4   0  -6  227.04   16.60
   4   0  -6  253.82   12.71
   4   0  -6  236.53   18.05
   4   0  -6  218.47   16.83
  -4   0   6  207.44   11.05
   4   0  -5   -0.17    0.68
   4   0  -5   -0.09    0.53
   4   0  -5    2.33    0.65
   4   0  -5    0.18    0.58
   4   0  -5    0.31    0.40
  -4   0   5    0.06    0.33
   4   0  -4  170.44   12.58
   4   0  -4  193.31   12.60
   4   0  -4  205.19   14.72
   4   0  -4  211.61   11.24
   4   0  -4  179.44   12.50
   4   0  -3    2.37    0.75
   4   0  -3    1.80    0.49
   4   0  -3    0.02    0.47
   4   0  -3   -0.20    0.44
   4   0  -3    1.21    0.55
   4   0  -3    0.31    0.57
   4   0  -2  399.72   26.48
   4   0  -2  388.17   22.05
   4   0  -2  368.63   25.75
   4   0  -2  385.31   24.78
   4   0  -2  421.54   21.67
   4   0  -1   -0.47    0.53
   4   0  -1    0.12    0.35
   4   0  -1   -0.01    0.30
   4   0  -1    0.34    0.44
   4   0  -1    0.47    0.42
   4   0   0  282.11   19.06
   4   0   0  244.85   14.71
   4   0   0  254.89   15.17
   4   0   0  235.20   15.51
   4   0   0  240.05   16.52
   4   0   1    0.13    0.33
   4   0   1    0.02    0.44
   4   0   1    0.21    0.35
   4   0   1   -0.04    0.29
   4   0   2   87.30    6.03
   4   0   2   83.43    5.53
   4   0   2   85.75    6.58
   4   0   2   82.41    5.96
   4   0   3    0.00    0.42
   4   0   3    0.21    0.36
   4   0   3    0.19    0.40
   4   0   3   -0.14    0.33
   4   0   4    3.74    1.02
   4   0   4    3.11    1.09
   4   0   4    1.74    0.97
   4   0   4    7.78    0.96
   4   0   5   -0.01    0.31
   4   0   5    2.25    0.64
   4   0   5   -0.23    0.44
   4   0   5   -0.03    0.36
   4   0   5    0.19    0.51
   4   0   6  238.62   16.51
   4   0   6  203.70   14.07
   4   0   6  194.42   13.71
   4   0   6  210.12   16.93
   4   0   7   -0.27    0.58
   4   0   7    1.47    0.53
   4   0   7    0.04    0.48
   4   0   7    0.00    0.68
   4   0   8  216.92   15.15
   4   0   8  212.13   15.66
   4   0   8  205.25   16.93
   4   0   8  217.59   15.26
   4   0   9    0.34    0.84
   4   0   9    1.84    0.68
   4   0   9    0.18    0.85
   4   0   9   -0.04    0.47
   4   0  10  597.16   50.62
   4   0  10  611.88   41.74
   4   0  10  594.12   41.54
   4   0  10  658.04   44.34
   4   0  11    0.81    0.81
   4   0  11   -0.04    1.08
   4   0  11    0.32    0.81
  -4   0 -11    0.68    0.92
   4   0  12 1508.42  134.16
   4   0  12 1571.27  107.67
   4   0  12 1557.24  108.60
  -4   0 -12 1506.68  110.05
   4   0  13    0.96    1.78
   4   0  13    3.55    1.10
   4   0  13    0.41    1.26
   4   0  13    0.00    1.07
  -4   0 -13    0.58    1.28
   4   0  14  429.48   40.81
   4   0  14  402.56   30.77
   4   0  14  372.26   28.32
  -4   0 -14  367.81   26.00
  -4   0 -14  399.63   33.37
   4   0  15    0.48    0.91
   4   0  15    2.27    1.08
   4   0  15    0.54    1.68
  -4   0 -15    1.90    0.94
  -4   0 -15    0.43    1.23
   4   0  16   21.60    3.04
   4   0  16   19.52    5.32
   4   0  16   19.20    3.24
  -4   0 -16   19.03    3.90
  -4   0 -16   19.23    3.01
   4   0  17    2.15    0.86
   4   0  17    0.04    1.08
   4   0  17    0.34    1.52
  -4   0 -17    0.36    0.92
   4   0  18  187.37   15.26
   4   0  18  187.47   16.76
   4   0  18  183.77   22.45
   4   0  19    2.55    0.99
   4   0  19    0.98    1.86
   4   0  19   -0.18    1.28
   4   0  20   50.62    8.22
   4   0  20   47.96    5.34
   4   0  20   48.12    5.86
   4   0  21    0.11    0.65
   4   0  21   -0.64    1.01
   4   0  22    6.53    2.06
   4   0  22    7.23    2.82
   4   0  23    0.06    0.53
   4   0  23    0.00    0.75
   4   0  24   10.97    2.71
   4   0  24    7.76    1.95
   4   0  25    0.00    0.81
   4   0  25    2.71    1.11
   4  -1 -25   19.97    3.41
   4   1 -25   20.54    3.57
   4   1 -25   20.03    2.97
   4  -1 -24    1.52    1.27
   4   1 -24    2.54    1.04
   4   1 -24    0.50    1.32
   4   1 -24    2.02    1.08
  -4   1  24    3.16    1.27
   4  -1 -23   18.38    3.85
   4  -1 -23   18.80    3.22
   4   1 -23   18.59    3.91
   4   1 -23   21.12    3.40
   4   1 -23   18.91    2.89
  -4   1  23   20.30    3.37
   4  -1 -22    6.34    1.98
   4   1 -22    5.29    1.73
   4   1 -22    6.16    2.26
   4   1 -22    7.24    2.06
   4  -1 -22    5.54    2.26
   4   1 -21   14.51    3.05
   4  -1 -21   14.23    2.72
   4  -1 -21   12.65    3.63
   4  -1 -21   12.99    2.77
   4   1 -21   16.21    2.89
   4   1 -21   13.18    3.27
   4  -1 -20   11.22    2.84
   4  -1 -20   27.19    3.79
   4  -1 -20   14.31    2.99
   4   1 -20   12.02    2.24
   4   1 -20   13.27    3.78
   4   1 -20   13.64    3.23
   4  -1 -19   20.21    4.49
   4  -1 -19   19.81    3.71
   4   1 -19   18.58    4.40
   4   1 -19   17.45    3.72
   4   1 -19   17.13    3.44
   4  -1 -19   18.74    3.46
   4   1 -18    1.27    1.89
   4  -1 -18    3.46    1.54
   4  -1 -18    1.69    1.21
   4   1 -18    2.88    1.51
   4   1 -18    3.60    1.72
   4  -1 -18    3.50    2.15
   4  -1 -17   24.25    5.93
   4   1 -17   31.52    4.50
   4  -1 -17   25.51    5.32
   4  -1 -17   36.09    4.73
   4  -1 -17   30.23    4.86
   4   1 -17   25.76    6.46
   4   1 -17   29.84    5.73
   4   1 -17   32.41    5.03
  -4  -1  17   25.41    4.15
   4  -1 -16    2.00    2.29
   4  -1 -16    6.00    1.70
   4  -1 -16    3.40    2.33
   4  -1 -16    6.15    1.89
   4   1 -16    2.29    1.69
   4   1 -16    4.48    2.21
   4   1 -16    3.93    1.93
   4   1 -16    2.91    2.51
  -4  -1  16    2.10    1.51
   4  -1 -15    5.27    2.61
   4  -1 -15    6.45    1.93
   4  -1 -15    6.34    2.04
   4   1 -15    5.54    2.68
   4   1 -15    4.61    1.99
   4   1 -15    5.59    2.22
   4   1 -15    5.48    2.11
   4  -1 -15    4.15    2.37
  -4  -1  15    2.09    1.39
   4  -1 -14    9.80    3.33
   4  -1 -14    9.75    2.83
   4  -1 -14   13.19    2.85
   4  -1 -14   14.18    2.86
   4   1 -14   10.24    2.58
   4   1 -14   10.66    2.60
   4   1 -14   12.46    3.28
   4   1 -14   10.23    2.97
  -4  -1  14    8.44    2.06
   4  -1 -13  222.90   20.88
   4   1 -13  218.29   18.66
   4  -1 -13  176.59   16.23
   4  -1 -13  218.13   18.64
   4  -1 -13  209.88   19.88
   4   1 -13  216.82   21.15
   4   1 -13  224.42   20.74
   4   1 -13  213.37   18.36
  -4  -1  13  207.23   16.07
   4  -1 -12    3.33    1.42
   4  -1 -12    4.40    1.39
   4  -1 -12    0.25    1.55
   4  -1 -12    3.91    1.50
   4   1 -12    2.23    1.38
   4   1 -12    6.12    1.55
   4   1 -12    0.62    1.20
   4   1 -12    1.28    1.07
   4   1 -12    0.92    1.71
  -4  -1  12    1.98    0.95
   4  -1 -11  153.05   14.32
   4   1 -11  155.14   14.45
   4  -1 -11  132.30   12.57
   4  -1 -11  162.42   13.77
   4  -1 -11  161.90   14.71
   4   1 -11  149.65   14.16
   4   1 -11  155.26   13.37
   4   1 -11  153.94   14.09
   4   1 -11  160.56   13.10
  -4  -1  11  141.10   10.45
   4  -1 -10   26.09    3.24
   4  -1 -10   33.78    4.30
   4  -1 -10   36.05    4.57
   4   1 -10   35.72    4.29
   4   1 -10   30.32    4.21
   4   1 -10   30.48    3.93
   4   1 -10   35.62    4.58
   4   1 -10   30.64    4.65
   4  -1 -10   34.77    4.52
  -4  -1  10   26.60    2.85
   4  -1  -9   28.08    3.61
   4   1  -9   27.13    3.77
   4  -1  -9   25.67    4.54
   4  -1  -9   22.96    3.48
   4  -1  -9   26.04    3.71
   4   1  -9   17.86    2.54
   4   1  -9   23.70    3.41
   4   1  -9   23.10    3.14
   4   1  -9   26.56    3.66
  -4  -1   9   25.18    2.48
   4  -1  -8   87.45    5.30
   4  -1  -8   79.61    8.24
   4  -1  -8   77.09    6.22
   4  -1  -8   74.16    7.15
   4  -1  -8   52.40    6.63
   4   1  -8   63.27    5.55
   4   1  -8   74.09    6.98
   4   1  -8   75.80    7.15
   4   1  -8   68.61    6.34
   4   1  -8   76.72    7.13
  -4  -1   8   67.29    4.68
   4   1  -7  435.10   30.35
   4   1  -7  513.99   35.79
   4  -1  -7  550.95   27.88
   4  -1  -7  511.34   34.84
   4  -1  -7  503.29   36.26
   4  -1  -7  522.65   36.46
   4   1  -7  513.66   36.11
   4   1  -7  512.33   34.98
   4  -1  -7  528.68   38.41
  -4  -1   7  449.76   24.57
   4  -1  -6    9.44    1.39
   4  -1  -6   10.93    2.33
   4  -1  -6    7.41    1.69
   4  -1  -6    6.98    1.25
   4  -1  -6    8.59    1.34
   4   1  -6    6.94    1.79
   4   1  -6   10.80    1.73
   4   1  -6    8.62    1.78
   4   1  -6    7.72    1.76
   4   1  -6   11.81    1.19
   4  -1  -6    8.93    1.95
  -4  -1   6    7.96    0.99
   4   1  -5    2.49    0.85
   4  -1  -5    0.30    0.61
   4  -1  -5    0.76    0.58
   4  -1  -5    1.82    0.68
   4  -1  -5    1.34    0.49
   4  -1  -5    1.84    0.84
   4  -1  -5    1.76    0.73
   4   1  -5    0.36    0.62
   4   1  -5    0.36    0.53
   4   1  -5    1.00    0.77
   4   1  -5   -0.06    0.83
  -4  -1   5    0.26    0.40
   4  -1  -4    7.95    1.64
   4  -1  -4    7.08    1.37
   4  -1  -4    7.06    1.13
   4  -1  -4    8.15    1.57
   4   1  -4    7.08    1.75
   4   1  -4    7.13    1.49
   4   1  -4    6.03    1.19
   4   1  -4    7.81    1.43
   4   1  -4    6.65    1.04
   4  -1  -4    6.73    1.54
  -4  -1   4    6.93    0.84
   4  -1  -3    4.75    1.10
   4  -1  -3    6.10    1.55
   4  -1  -3    5.13    0.89
   4  -1  -3    5.77    1.30
   4  -1  -3    4.54    1.25
   4   1  -3    5.01    1.16
   4   1  -3    3.52    0.84
   4   1  -3    4.03    1.19
   4   1  -3    4.56    1.33
   4   1  -3    3.59    1.10
   4  -1  -3    3.87    0.74
  -4  -1   3    3.43    0.62
   4  -1  -2   87.98    5.91
   4  -1  -2   88.56    7.75
   4  -1  -2   85.87    5.52
   4  -1  -2   87.65    6.61
   4   1  -2   94.30    7.03
   4   1  -2   87.46    5.42
   4   1  -2   95.02    7.04
   4   1  -2   83.63    5.98
   4   1  -2   82.42    5.42
   4  -1  -2   87.91    6.99
  -4  -1   2   67.96    3.83
   4   1  -1  275.58   14.19
   4  -1  -1  309.61   18.65
   4   1  -1  327.20   21.28
   4  -1  -1  316.21   17.77
   4  -1  -1  310.65   21.03
   4  -1  -1  321.57   18.38
   4  -1  -1  313.41   21.25
   4   1  -1  321.33   20.24
   4   1  -1  396.77   21.23
   4   1  -1  324.58   18.54
   4   1  -1  321.70   19.79
   4  -1   0    4.49    0.95
   4  -1   0    7.17    1.91
   4  -1   0    4.65    1.07
   4  -1   0    3.94    1.21
   4  -1   0    5.37    1.20
   4   1   0    6.30    1.57
   4   1   0    5.38    1.01
   4   1   0    5.58    0.77
   4   1   0    5.85    1.06
   4   1   0    5.17    1.15
   4   1   0    5.36    1.32
   4   1   1  250.55   15.05
   4  -1   1  214.94   12.46
   4  -1   1  210.69   14.70
   4  -1   1  202.52   13.47
   4  -1   1  227.20   13.65
   4   1   1  187.29    9.96
   4   1   1  219.34   12.89
   4   1   1  207.50   13.30
   4  -1   2    4.60    0.94
   4  -1   2    3.72    0.98
   4  -1   2    4.27    1.19
   4   1   2    3.67    0.93
   4   1   2    2.91    0.99
   4   1   2    3.42    1.34
   4   1   2    3.05    0.76
   4  -1   2    3.82    1.14
   4  -1   3   53.18    4.83
   4  -1   3   49.44    4.09
   4  -1   3   52.86    3.84
   4  -1   3   57.89    4.69
   4   1   3   52.81    3.83
   4   1   3   53.65    4.44
   4   1   3   57.33    4.89
   4   1   3   51.09    4.94
   4   1   3   46.68    3.42
   4  -1   4   85.48    6.33
   4  -1   4   90.70    7.00
   4  -1   4   88.75    6.41
   4   1   4   91.40    6.75
   4   1   4   77.02    5.13
   4   1   4   81.97    6.13
   4   1   4   88.07    7.68
   4   1   4   92.36    7.07
   4  -1   4   90.94    7.04
   4  -1   5   11.82    1.72
   4  -1   5   12.64    2.25
   4  -1   5   12.82    1.92
   4  -1   5   10.33    1.65
   4   1   5   12.31    1.83
   4   1   5   12.60    1.65
   4   1   5   11.92    2.27
   4   1   5   10.07    2.17
   4   1   5   10.24    1.60
   4  -1   6  143.09    9.42
   4   1   6  139.34    9.61
   4  -1   6  147.46   10.18
   4  -1   6  168.60   11.50
   4  -1   6  145.11    9.67
   4   1   6  154.26   10.94
   4   1   6  161.12   12.43
   4   1   6  147.20    9.79
   4   1   6  144.45   12.12
   4   1   7  400.48   30.77
   4  -1   7  416.57   30.92
   4  -1   7  412.72   26.23
   4  -1   7  446.07   29.14
   4  -1   7  420.07   25.88
   4   1   7  445.70   30.35
   4   1   7  415.93   28.39
   4   1   7  379.16   25.16
   4   1   7  426.67   26.46
   4  -1   7  468.57   30.51
   4  -1   8    0.34    0.97
   4  -1   8    0.84    1.00
   4  -1   8    0.61    0.74
   4  -1   8    3.21    0.85
   4   1   8    1.44    0.60
   4   1   8    0.19    0.81
   4   1   8    1.40    0.71
   4   1   8    0.13    1.09
   4   1   8    0.43    0.64
  -4   1  -8    3.12    1.48
   4  -1   9  113.46   10.58
   4  -1   9  116.31    9.06
   4  -1   9  119.11    9.65
   4   1   9  121.66    9.82
   4   1   9  101.99    8.96
   4   1   9  108.57    9.20
   4   1   9  128.15    9.24
   4   1   9  120.59   12.17
   4  -1   9  134.52    9.57
  -4   1  -9  112.16   13.60
   4  -1  10  234.70   17.39
   4  -1  10  202.30   18.52
   4  -1  10  205.97   15.40
   4  -1  10  207.20   15.96
   4   1  10  210.34   16.20
   4   1  10  218.83   17.27
   4   1  10  217.26   16.01
   4   1  10  217.41   21.09
  -4  -1 -10  196.98   16.29
   4   1  11   67.89    6.38
   4  -1  11   70.36    8.08
   4  -1  11   72.01    7.17
   4  -1  11   52.63    5.46
   4   1  11   73.01    6.85
   4   1  11   72.33    7.52
   4   1  11   75.68    9.60
   4  -1  11   71.82    6.51
  -4   1 -11   63.92    7.50
  -4  -1 -11   67.92    6.59
   4  -1  12  159.61   16.58
   4  -1  12  152.54   12.45
   4  -1  12  137.02   11.72
   4   1  12  157.93   13.18
   4   1  12  145.21   17.90
   4   1  12  182.54   14.03
  -4   1 -12  149.89   12.89
  -4  -1 -12  152.89   11.81
  -4  -1 -12  155.84   13.67
   4  -1  13   67.95    9.65
   4  -1  13   67.42    6.60
   4  -1  13   61.52    6.46
   4   1  13   69.51    6.89
   4   1  13   64.25    9.84
   4   1  13   67.58    6.98
  -4   1 -13   68.69    6.74
  -4  -1 -13   64.70    6.27
  -4  -1 -13   66.41    7.57
   4  -1  14   58.57    5.70
   4  -1  14   59.62    6.52
   4   1  14   58.51    6.32
   4   1  14   57.23    9.03
   4   1  14   57.82    5.60
   4  -1  14   63.78    8.95
  -4   1 -14   58.04    6.43
  -4  -1 -14   54.57    6.00
  -4  -1 -14   53.87    7.75
   4  -1  15  161.03   13.08
   4  -1  15  173.69   19.00
   4  -1  15  163.89   13.94
   4   1  15  161.84   13.94
   4   1  15  171.31   15.06
   4   1  15  150.64   19.12
  -4   1 -15  158.75   12.59
  -4   1 -15  163.15   15.21
  -4  -1 -15  154.85   12.87
   4   1  16   12.72    2.86
   4  -1  16   15.47    3.08
   4  -1  16   14.45    2.38
   4   1  16   13.59    2.46
   4   1  16   13.41    3.39
   4  -1  16   13.92    2.76
  -4   1 -16   13.00    2.46
  -4   1 -16   14.58    2.49
  -4  -1 -16   13.67    2.53
   4  -1  17   33.88    6.44
   4  -1  17   33.86    4.56
   4  -1  17   31.06    3.87
   4   1  17   30.80    4.00
   4   1  17   35.69    4.95
   4   1  17   30.24    7.23
   4  -1  18   16.54    2.56
   4  -1  18   15.31    2.91
   4   1  18   16.88    2.77
   4   1  18   21.47    5.19
   4   1  18   15.37    3.43
   4  -1  18   14.88    4.52
   4  -1  19   61.10    5.99
   4   1  19   63.29   10.03
   4  -1  19   58.61    9.54
   4  -1  19   54.83    6.39
   4   1  19   62.38    6.16
   4   1  19   59.41    7.55
   4  -1  20    3.81    1.74
   4  -1  20    5.89    2.57
   4   1  20    4.03    1.35
   4   1  20    3.22    1.77
   4   1  20    4.90    2.53
   4  -1  21    4.51    1.66
   4  -1  21    4.64    2.39
   4   1  21    2.71    1.72
   4   1  21    4.05    2.36
   4   1  21    3.82    1.33
   4  -1  22    0.11    0.62
   4  -1  22    0.00    0.88
   4   1  22    0.01    0.49
   4   1  22    0.56    0.88
   4  -1  23    0.54    1.04
   4  -1  23    3.11    1.49
   4   1  23    0.48    1.06
   4   1  23    3.39    1.47
  -4   1 -23    0.46    0.89
   4   1  24    3.48    1.60
   4  -1  24    1.10    1.04
   4  -1  24    3.09    1.51
   4   1  24    1.68    1.17
   4   1  25    0.02    0.81
   4   1  25    2.71    1.09
   4  -2 -25   12.48    2.63
   4   2 -25   13.96    2.68
   4   2 -25   13.27    2.12
   4  -2 -24    3.23    1.72
   4   2 -24    5.17    1.26
   4   2 -24    6.65    1.73
   4   2 -24    4.67    1.53
  -4   2  24    0.14    1.58
   4   2 -23    4.88    2.03
   4   2 -23    7.07    1.85
   4   2 -23    3.72    1.46
   4  -2 -23    4.04    2.07
  -4   2  23    6.65    2.00
   4  -2 -22   48.20    6.36
   4  -2 -22   51.49    5.79
   4   2 -22   43.16    5.28
   4   2 -22   42.50    6.19
   4   2 -22   49.93    6.18
  -4   2  22   44.61    6.04
   4   2 -21    6.13    2.28
   4  -2 -21    6.56    2.58
   4  -2 -21    8.98    2.29
   4   2 -21    8.37    2.20
   4   2 -21    9.49    2.58
  -4   2  21    9.33    2.53
   4  -2 -20   24.79    5.26
   4  -2 -20   30.02    4.72
   4   2 -20   29.48    4.53
   4   2 -20   26.33    4.97
   4   2 -20   27.80    4.97
   4  -2 -20   35.65    3.89
   4  -2 -19    2.78    2.01
   4  -2 -19    4.51    1.81
   4  -2 -19    5.26    1.93
   4   2 -19    3.96    2.12
   4   2 -19    2.26    1.80
   4   2 -19    4.17    1.71
   4  -2 -18   32.27    4.98
   4   2 -18   36.19    5.86
   4  -2 -18   37.44    5.12
   4  -2 -18   31.47    5.97
   4   2 -18   33.66    4.09
   4   2 -18   32.63    5.46
   4   2 -17    1.17    1.12
   4  -2 -17    0.60    1.38
   4  -2 -17    0.22    1.23
   4  -2 -17    0.01    1.07
   4  -2 -17    3.54    1.18
   4   2 -17    1.15    1.61
   4   2 -17    2.61    1.10
   4   2 -17    0.75    1.28
  -4  -2  17    0.17    0.95
   4  -2 -16   43.73    6.03
   4  -2 -16   37.00    6.27
   4  -2 -16   53.08    6.31
   4  -2 -16   37.53    7.06
   4   2 -16   47.00    6.09
   4   2 -16   49.42    7.11
   4   2 -16   47.09    6.42
   4   2 -16   38.36    5.88
  -4  -2  16   42.87    5.24
   4  -2 -15   44.64    6.45
   4  -2 -15   40.04    6.78
   4  -2 -15   58.83    7.02
   4  -2 -15   48.21    7.36
   4   2 -15   47.42    6.21
   4   2 -15   56.75    6.35
   4   2 -15   51.87    7.30
   4   2 -15   53.90    7.19
  -4  -2  15   51.06    5.90
   4  -2 -14   31.72    5.28
   4  -2 -14   43.51    5.71
   4  -2 -14   35.03    5.04
   4   2 -14   38.65    6.44
   4   2 -14   43.78    5.22
   4   2 -14   39.52    6.11
   4   2 -14   33.87    5.06
   4   2 -14   41.35    6.05
   4  -2 -14   35.27    5.39
  -4  -2  14   35.85    4.34
   4  -2 -13   19.00    3.69
   4  -2 -13   22.03    3.95
   4  -2 -13   19.93    4.35
   4  -2 -13   21.15    3.69
   4   2 -13   20.94    2.80
   4   2 -13   19.47    3.54
   4   2 -13   24.39    4.47
   4   2 -13   25.71    4.02
   4   2 -13   18.06    4.21
  -4  -2  13   19.30    2.96
   4  -2 -12    4.96    1.99
   4   2 -12    5.39    2.10
   4  -2 -12    5.90    2.01
   4  -2 -12   19.70    2.32
   4  -2 -12    5.10    2.32
   4   2 -12    5.83    2.42
   4   2 -12    5.48    1.54
   4   2 -12    4.54    1.79
   4   2 -12   10.93    2.37
  -4  -2  12    4.30    1.58
   4   2 -11   14.09    3.06
   4  -2 -11   18.01    3.86
   4  -2 -11   17.89    3.41
   4  -2 -11   16.24    3.66
   4   2 -11   15.89    3.38
   4   2 -11   21.78    2.65
   4   2 -11   17.93    3.49
   4   2 -11   18.59    3.40
   4  -2 -11   17.47    3.18
  -4  -2  11   17.19    2.40
   4  -2 -10    8.73    2.09
   4   2 -10    6.47    2.13
   4  -2 -10    6.18    2.55
   4  -2 -10    6.98    1.51
   4  -2 -10    6.74    2.30
   4   2 -10    7.96    2.13
   4   2 -10    7.28    1.67
   4   2 -10    9.08    2.15
   4   2 -10    4.37    2.02
   4   2 -10    8.84    2.21
  -4  -2  10    6.68    1.32
   4  -2  -9  571.07   45.22
   4  -2  -9  571.66   41.18
   4  -2  -9  568.55   31.12
   4  -2  -9  547.57   41.20
   4  -2  -9  557.97   41.08
   4   2  -9  534.05   39.94
   4   2  -9  547.91   41.88
   4   2  -9  559.68   38.26
   4   2  -9  566.53   43.06
   4   2  -9  558.30   39.99
   4   2  -9  566.71   42.34
  -4  -2   9  507.40   31.21
   4  -2  -8  427.91   32.19
   4  -2  -8  451.25   33.06
   4  -2  -8  421.69   25.41
   4  -2  -8  455.93   25.30
   4  -2  -8  443.63   30.53
   4   2  -8  365.35   26.34
   4   2  -8  414.80   27.86
   4   2  -8  449.57   31.94
   4   2  -8  437.61   31.49
   4   2  -8  452.69   33.17
   4   2  -8  446.84   31.53
   4  -2  -8  326.89   27.83
  -4  -2   8  385.38   22.69
   4  -2  -7  211.48   17.56
   4  -2  -7  224.75   16.59
   4  -2  -7  212.44   13.66
   4  -2  -7  233.54   13.86
   4  -2  -7  244.54   18.28
   4   2  -7  222.69   17.66
   4   2  -7  230.24   16.56
   4   2  -7  223.62   16.95
   4   2  -7  227.11   17.00
   4   2  -7  187.62   14.41
   4  -2  -7  230.85   17.09
  -4  -2   7  213.62   12.93
   4  -2  -6   82.44    7.34
   4  -2  -6   98.05    7.64
   4  -2  -6   89.74    6.26
   4  -2  -6   99.57    6.51
   4  -2  -6   96.68    8.62
   4  -2  -6  100.00    8.54
   4   2  -6   99.59    8.81
   4   2  -6   94.58    8.23
   4   2  -6   94.08    7.53
   4   2  -6   91.72    7.41
   4   2  -6   95.45    7.24
  -4  -2   6   88.68    5.88
   4  -2  -5   91.20    6.28
   4   2  -5   90.23    7.35
   4  -2  -5   91.53    7.10
   4  -2  -5   89.42    7.74
   4  -2  -5   86.35    5.58
   4  -2  -5   97.77    8.04
   4   2  -5   93.20    7.72
   4   2  -5   87.81    7.72
   4   2  -5   94.54    8.06
   4   2  -5   89.32    7.06
   4   2  -5  110.06    5.81
   4  -2  -5   78.08    7.19
  -4  -2   5   79.54    5.60
   4  -2  -4    6.27    1.79
   4  -2  -4    6.48    1.35
   4  -2  -4    9.73    1.50
   4  -2  -4    5.59    1.68
   4  -2  -4    7.39    1.60
   4   2  -4    8.77    1.60
   4   2  -4    8.49    1.12
   4   2  -4    4.18    1.27
   4   2  -4    7.78    1.52
   4   2  -4    6.67    1.60
   4   2  -4    7.99    1.39
   4  -2  -4    7.61    1.19
  -4  -2   4    5.11    0.91
   4  -2  -3   56.93    5.26
   4  -2  -3   56.31    5.60
   4  -2  -3   61.09    4.51
   4  -2  -3   52.98    4.15
   4  -2  -3   66.01    5.06
   4  -2  -3   57.57    5.42
   4   2  -3   51.39    4.48
   4   2  -3   48.44    4.77
   4   2  -3   52.94    4.96
   4   2  -3   56.71    5.13
   4   2  -3   53.66    4.59
   4   2  -3   63.49    4.19
   4  -2  -2   12.12    1.81
   4  -2  -2   12.96    2.23
   4  -2  -2    8.27    1.33
   4  -2  -2    9.77    1.40
   4  -2  -2    9.46    1.79
   4  -2  -2    9.78    1.70
   4   2  -2    9.65    1.76
   4   2  -2    9.76    1.34
   4   2  -2    8.86    1.72
   4   2  -2   10.44    1.47
   4   2  -2    8.56    1.77
   4   2  -2   11.45    1.67
   4   2  -2   10.13    1.26
   4  -2  -1   13.66    2.75
   4  -2  -1   11.56    1.84
   4  -2  -1    9.19    1.50
   4  -2  -1    8.65    1.79
   4  -2  -1    8.88    1.83
   4   2  -1   10.63    1.64
   4   2  -1   12.34    1.39
   4   2  -1   16.96    1.61
   4   2  -1    8.84    1.65
   4   2  -1    8.29    1.40
   4   2  -1    8.93    1.31
   4  -2   0    0.36    1.05
   4  -2   0    3.28    1.09
   4  -2   0    3.45    1.05
   4  -2   0    3.35    1.09
   4   2   0    3.87    1.09
   4   2   0    3.90    0.92
   4   2   0    1.59    0.85
   4   2   0    2.78    1.01
   4   2   0    3.92    1.06
   4  -2   0    2.88    0.84
   4  -2   1  339.48   22.67
   4  -2   1  331.58   19.86
   4  -2   1  318.70   19.00
   4  -2   1  317.11   20.65
   4   2   1  318.63   18.56
   4   2   1  327.58   19.75
   4   2   1  361.39   21.55
   4   2   1  330.46   21.28
   4   2   1  322.89   22.08
   4   2   2  312.36   19.23
   4  -2   2  259.74   15.47
   4  -2   2  263.95   16.72
   4  -2   2  279.05   18.22
   4   2   2  279.12   17.12
   4   2   2  275.59   17.44
   4   2   2  271.82   17.54
   4   2   2  277.84   19.58
   4  -2   2  289.31   19.70
   4   2   3  141.79    9.73
   4  -2   3  145.89    9.75
   4  -2   3  156.68   11.23
   4  -2   3  149.10   10.36
   4  -2   3  147.01    9.97
   4   2   3  163.11   10.59
   4   2   3  151.11   10.20
   4   2   3  136.90    9.24
   4   2   3  151.84   11.60
   4  -2   4   73.20    5.57
   4  -2   4   68.88    5.27
   4  -2   4   70.05    5.38
   4  -2   4   73.99    6.10
   4   2   4   68.55    5.52
   4   2   4   59.14    5.09
   4   2   4   66.22    4.99
   4   2   4   67.04    5.54
   4   2   4   68.95    6.38
   4   2   5  189.29   13.48
   4  -2   5  190.71   12.27
   4  -2   5  192.09   14.11
   4  -2   5  201.65   13.00
   4   2   5  195.11   13.69
   4   2   5  171.77   12.67
   4   2   5  187.05   11.97
   4   2   5  185.14   14.69
   4  -2   5  182.06   12.26
   4  -2   6  168.92   11.23
   4   2   6  170.13   13.83
   4  -2   6  169.23   11.36
   4  -2   6  174.18   12.63
   4  -2   6  172.58   12.10
   4   2   6  169.88   12.53
   4   2   6  155.27   11.77
   4   2   6  170.55   11.47
   4   2   6  153.32   11.53
   4  -2   7  200.25   13.60
   4  -2   7  209.89   15.01
   4  -2   7  201.04   14.06
   4  -2   7  198.85   12.56
   4   2   7  204.49   14.09
   4   2   7  187.77   15.63
   4   2   7  193.69   16.48
   4   2   7  197.17   13.77
   4   2   7  206.31   16.04
   4   2   7  205.63   17.61
   4  -2   8  123.39    9.48
   4  -2   8  127.12    9.33
   4  -2   8  130.19   10.56
   4   2   8  127.67   11.95
   4   2   8  131.15   10.06
   4   2   8  122.67   10.85
   4   2   8  124.18    9.54
   4   2   8  126.08   12.43
   4   2   8  127.55    9.45
  -4   2  -8  117.20   13.83
   4   2   9  294.49   21.50
   4  -2   9  307.74   25.17
   4  -2   9  295.54   20.39
   4  -2   9  316.79   22.56
   4   2   9  302.40   20.95
   4   2   9  288.41   23.69
   4   2   9  320.96   26.04
   4   2   9  307.26   21.42
   4   2   9  301.06   27.52
   4  -2   9  327.87   23.76
  -4   2  -9  303.03   29.17
  -4  -2  -9  282.10   20.60
   4   2  10   81.31    9.05
   4  -2  10   83.92    8.91
   4  -2  10   87.56    7.10
   4  -2  10   84.87    7.11
   4  -2  10   92.13    8.28
   4   2  10   83.42    7.61
   4   2  10   77.29    8.47
   4   2  10   79.57    7.23
   4   2  10   80.41    8.61
  -4   2 -10   85.00   11.12
  -4  -2 -10   82.13    7.18
  -4  -2 -10   77.58    6.86
   4   2  11    3.15    1.16
   4  -2  11    5.55    1.45
   4  -2  11    1.84    1.03
   4  -2  11    2.45    1.16
   4   2  11    3.03    1.46
   4   2  11    0.17    1.46
   4   2  11    1.01    1.19
   4   2  11    1.05    1.86
   4  -2  11    3.53    0.89
  -4   2 -11    2.68    1.50
  -4   2 -11    0.51    1.79
  -4  -2 -11    0.70    1.11
   4  -2  12  133.09   13.80
   4  -2  12  129.57   10.38
   4  -2  12  133.94   11.70
   4   2  12  142.92   11.86
   4   2  12  110.72   12.76
   4   2  12  133.41   11.62
   4   2  12  126.08   14.01
   4   2  12  131.45   15.85
  -4   2 -12  122.51   12.94
  -4   2 -12  125.28   13.23
  -4  -2 -12  126.03    9.39
   4  -2  13   26.30    3.08
   4  -2  13   34.79    4.26
   4  -2  13   29.98    4.08
   4  -2  13   28.53    3.37
   4   2  13   23.02    4.95
   4   2  13   23.84    4.58
   4   2  13   21.97    4.00
   4   2  13   29.51    6.12
   4   2  13   28.93    3.89
  -4   2 -13   28.90    4.48
  -4  -2 -13   29.76    3.93
   4  -2  14  243.90   23.56
   4  -2  14  220.17   15.70
   4  -2  14  200.39   16.39
   4  -2  14  214.50   15.92
   4   2  14  234.28   17.49
   4   2  14  203.42   21.56
   4   2  14  213.53   25.20
   4   2  14  244.81   20.37
  -4   2 -14  220.86   19.44
  -4  -2 -14  218.96   17.00
   4  -2  15  183.89   19.49
   4  -2  15  170.17   13.25
   4  -2  15  172.32   13.45
   4   2  15  181.09   14.61
   4   2  15  177.77   16.32
   4   2  15  166.19   21.54
   4   2  15  176.15   20.03
   4  -2  15  169.76   15.16
  -4   2 -15  174.81   17.65
  -4  -2 -15  157.43   13.26
   4  -2  16   90.92    7.90
   4   2  16   95.91    9.16
   4  -2  16  105.19   12.42
   4  -2  16   96.85    8.51
   4   2  16   92.17   12.51
   4   2  16   91.93   10.04
   4   2  16   87.69   13.41
  -4   2 -16   82.12   10.21
  -4  -2 -16   93.73    9.45
   4  -2  17   41.77    5.84
   4  -2  17   42.90    4.56
   4  -2  17   42.32    5.09
   4  -2  17   40.71    5.08
   4   2  17   44.20    6.06
   4   2  17   35.19    6.79
   4   2  17   44.17    8.45
   4   2  17   44.94    4.23
   4   2  18   39.38    4.48
   4  -2  18   40.36    6.57
   4  -2  18   36.55    4.11
   4  -2  18   31.92    4.15
   4   2  18   17.48    5.39
   4   2  18   35.92    5.23
   4   2  18   34.46    7.68
   4  -2  18   36.60    4.90
   4  -2  19    2.56    2.23
   4  -2  19   19.01    3.98
   4  -2  19   15.73    2.00
   4   2  19   16.57    2.40
   4   2  19    0.05    3.02
   4   2  19   16.27    2.82
   4   2  19   16.83    4.29
   4   2  20   37.46    4.48
   4  -2  20   42.04    6.93
   4  -2  20   36.98    4.81
   4   2  20   38.77    5.45
   4   2  20   35.23    7.54
   4  -2  21   37.96    6.62
   4   2  21   31.83    3.90
   4   2  21   37.97    6.88
   4   2  21   36.07    5.30
   4  -2  21   38.09    4.80
   4  -2  22   10.77    2.51
   4  -2  22   12.80    3.40
   4   2  22   10.60    2.90
   4   2  22   12.16    2.76
   4  -2  23    2.83    1.12
   4  -2  23    3.10    1.76
   4   2  23    1.56    1.80
   4   2  23    1.11    1.44
   4  -2  24    1.41    1.04
   4  -2  24    5.53    1.63
   4   2  24    2.57    1.33
   4   2  24    4.39    1.59
  -4   2 -24    1.07    1.06
   4   3 -25    6.33    1.75
  -4   3  25    8.10    2.01
   4  -3 -24   63.61    6.77
   4   3 -24   62.58    6.10
   4   3 -24   63.62    6.63
   4   3 -24   70.16    7.52
  -4   3  24   58.73    7.35
   4  -3 -23   14.55    3.59
   4   3 -23   19.07    3.75
   4   3 -23   18.85    3.02
   4   3 -23   20.14    2.77
  -4   3  23   18.85    3.56
   4  -3 -22   12.36    3.18
   4   3 -22   13.15    2.47
   4   3 -22   11.99    3.08
   4   3 -22   14.88    2.70
  -4   3  22   13.08    3.16
   4  -3 -21    8.74    3.11
   4   3 -21    9.12    1.91
   4   3 -21    9.45    1.59
   4   3 -21    8.54    2.70
  -4   3  21    9.90    2.87
   4  -3 -20    0.40    0.76
   4  -3 -20    0.26    1.06
   4   3 -20    0.05    0.78
   4   3 -20   -0.08    0.92
   4   3 -20    0.16    0.61
  -4   3  20    0.74    0.70
   4  -3 -19   50.64    7.42
   4  -3 -19   58.27    6.77
   4   3 -19   53.73    6.85
   4   3 -19   45.41    6.79
   4   3 -19   50.30    6.84
  -4   3  19   49.59    7.61
   4  -3 -18   29.55    5.82
   4  -3 -18   36.29    5.20
   4   3 -18   29.81    5.30
   4   3 -18   36.04    5.20
   4   3 -18   33.36    5.39
  -4   3  18   32.69    5.85
   4  -3 -17    5.38    3.05
   4  -3 -17    8.01    2.41
   4  -3 -17    8.99    2.34
   4   3 -17    6.24    2.33
   4   3 -17    7.48    2.93
   4   3 -17    6.24    2.57
   4  -3 -16    4.09    1.80
   4  -3 -16    0.97    2.18
   4  -3 -16    3.75    1.58
   4  -3 -16    0.19    1.92
   4   3 -16   11.57    2.19
   4   3 -16    1.67    1.60
   4   3 -16    1.30    1.79
   4   3 -16    3.19    1.91
  -4  -3  16    1.00    1.48
   4  -3 -15    2.89    2.40
   4  -3 -15    4.80    1.72
   4  -3 -15    1.48    2.30
   4   3 -15    3.56    1.72
   4   3 -15    4.20    2.27
   4   3 -15    3.48    1.77
   4   3 -15    3.91    2.18
   4   3 -15    7.55    2.08
   4  -3 -15    3.85    1.42
  -4  -3  15    2.89    1.54
   4  -3 -14    5.12    2.61
   4  -3 -14    6.64    2.13
   4  -3 -14    2.91    2.45
   4  -3 -14    3.96    2.20
   4   3 -14    5.36    2.32
   4   3 -14    3.96    2.42
   4   3 -14    5.34    1.81
   4   3 -14    4.97    2.09
   4   3 -14    7.46    2.27
   4   3 -14    6.21    2.07
  -4  -3  14    5.60    1.68
   4  -3 -13    3.55    1.70
   4  -3 -13    0.65    1.45
   4  -3 -13    0.33    1.21
   4   3 -13    2.75    1.57
   4   3 -13    2.63    1.43
   4   3 -13    1.00    1.48
   4   3 -13    0.60    0.86
   4   3 -13    0.80    1.58
   4   3 -13    0.66    1.51
   4  -3 -13    9.30    1.60
  -4  -3  13    2.52    1.09
   4  -3 -12    3.65    2.03
   4  -3 -12    2.97    1.65
   4  -3 -12    3.38    1.96
   4   3 -12    3.89    1.80
   4   3 -12    3.66    1.79
   4   3 -12    2.31    1.44
   4   3 -12    3.16    1.31
   4   3 -12    2.58    1.78
   4   3 -12    3.81    1.87
   4  -3 -12    5.68    1.76
  -4  -3  12    3.85    1.30
   4  -3 -11    8.60    2.89
   4  -3 -11    8.95    2.16
   4  -3 -11   11.36    2.51
   4  -3 -11    8.92    2.05
   4   3 -11    9.97    2.58
   4   3 -11   19.20    2.87
   4   3 -11   10.31    2.55
   4   3 -11    8.04    2.47
   4   3 -11   11.47    2.79
   4   3 -11   10.32    2.23
  -4  -3  11    9.99    1.81
   4  -3 -10    1.41    1.43
   4  -3 -10    3.65    1.25
   4  -3 -10    1.13    0.83
   4  -3 -10    2.29    0.91
   4  -3 -10    1.02    1.07
   4  -3 -10    3.39    1.45
   4   3 -10    2.65    1.33
   4   3 -10    1.62    1.27
   4   3 -10    2.18    1.39
   4   3 -10    1.89    1.04
   4   3 -10    1.90    1.10
   4   3 -10    3.47    1.38
  -4  -3  10    1.72    0.87
   4  -3  -9   70.81    7.45
   4  -3  -9   64.19    7.25
   4  -3  -9   59.30    4.96
   4  -3  -9   68.80    5.52
   4  -3  -9   61.56    7.10
   4   3  -9   60.73    7.20
   4   3  -9   65.05    7.16
   4   3  -9   59.19    5.78
   4   3  -9   62.31    6.69
   4   3  -9   67.91    7.14
   4   3  -9   53.82    5.73
   4  -3  -9   60.15    6.36
  -4  -3   9   56.61    4.93
   4  -3  -8    9.65    2.37
   4  -3  -8   10.39    2.23
   4  -3  -8   12.03    1.71
   4  -3  -8   11.51    2.79
   4  -3  -8   14.59    2.64
   4   3  -8    9.75    2.07
   4   3  -8   11.23    2.57
   4   3  -8   10.58    1.97
   4   3  -8   10.12    2.39
   4   3  -8   11.65    2.36
   4   3  -8    9.30    2.18
   4  -3  -8   12.42    1.96
  -4  -3   8   11.60    1.79
   4  -3  -7    1.20    1.30
   4  -3  -7    4.35    1.22
   4  -3  -7    2.17    0.67
   4  -3  -7    3.35    1.06
   4  -3  -7    2.72    1.44
   4   3  -7    3.75    1.39
   4   3  -7    4.91    1.19
   4   3  -7    4.75    1.31
   4   3  -7    0.97    1.28
   4   3  -7    3.92    1.00
   4   3  -7    3.10    1.29
   4  -3  -7    3.21    1.03
  -4  -3   7    2.86    0.98
   4  -3  -6   13.68    1.86
   4  -3  -6   14.41    2.28
   4  -3  -6   15.51    1.99
   4  -3  -6   13.72    2.61
   4  -3  -6   17.75    2.75
   4   3  -6   16.28    2.68
   4   3  -6   17.06    2.92
   4   3  -6   15.55    2.52
   4   3  -6   16.14    2.38
   4   3  -6   19.24    2.16
   4  -3  -6   17.24    1.78
   4   3  -6   14.55    2.64
  -4  -3   6   13.95    1.85
   4  -3  -5   42.14    3.79
   4  -3  -5   42.17    4.70
   4  -3  -5   39.19    3.58
   4  -3  -5   41.50    3.91
   4  -3  -5   39.27    4.30
   4  -3  -5   35.61    4.40
   4   3  -5   41.54    3.88
   4   3  -5   42.70    4.28
   4   3  -5   39.91    4.75
   4   3  -5   38.29    4.17
   4   3  -5   36.86    4.26
   4   3  -5   42.92    3.99
  -4  -3   5   45.03    3.37
   4  -3  -4   16.98    2.50
   4  -3  -4   13.56    1.79
   4  -3  -4   12.80    1.76
   4  -3  -4   13.25    2.33
   4  -3  -4   12.57    2.12
   4   3  -4   12.79    1.85
   4   3  -4   12.84    2.18
   4   3  -4   11.36    2.16
   4   3  -4   14.50    1.88
   4   3  -4   14.56    2.05
   4   3  -4   12.07    2.45
   4  -3  -4   11.76    2.03
  -4  -3   4   11.85    1.46
   4  -3  -3    1.95    0.68
   4  -3  -3    2.10    1.06
   4  -3  -3    2.46    0.68
   4  -3  -3    1.84    0.83
   4  -3  -3    2.07    0.95
   4  -3  -3    3.30    0.95
   4   3  -3    3.30    0.76
   4   3  -3    1.93    0.71
   4   3  -3    2.70    0.96
   4   3  -3    0.47    0.90
   4   3  -3    1.18    0.92
   4   3  -3    1.38    0.76
   4   3  -3    1.79    0.82
   4   3  -3    0.01    0.41
   4  -3  -2    6.31    1.71
   4  -3  -2    2.83    1.01
   4  -3  -2    4.40    1.20
   4  -3  -2    3.40    1.34
   4  -3  -2    4.88    1.02
   4   3  -2    3.31    1.37
   4   3  -2    4.11    1.16
   4   3  -2    4.92    1.10
   4   3  -2    4.39    0.90
   4   3  -2    2.97    1.32
   4   3  -2    6.50    1.33
   4   3  -2    3.66    1.22
  -4   3   2    4.31    1.24
   4  -3  -1   71.09    5.29
   4  -3  -1   67.31    5.98
   4  -3  -1   73.76    6.26
   4  -3  -1   70.12    6.16
   4  -3  -1   60.91    3.49
   4   3  -1   67.82    6.47
   4   3  -1   69.29    5.01
   4   3  -1   67.99    5.36
   4   3  -1   79.03    5.26
   4   3  -1   73.56    5.10
   4   3  -1   68.90    6.07
   4   3  -1   73.59    6.15
   4  -3  -1   68.76    5.41
   4  -3   0  199.74   10.14
   4  -3   0  196.15   12.79
   4  -3   0  215.91   14.60
   4  -3   0  198.73   14.65
   4  -3   0  203.09   14.49
   4   3   0  206.40   13.70
   4   3   0  218.33   13.16
   4   3   0  210.54   15.12
   4   3   0  211.14   15.10
   4   3   0  196.36   12.48
   4  -3   1   12.77    2.07
   4  -3   1   10.52    1.59
   4  -3   1    9.70    1.91
   4  -3   1   10.17    1.06
   4  -3   1   11.05    1.93
   4   3   1   10.04    1.79
   4   3   1    8.49    1.49
   4   3   1   10.56    1.74
   4   3   1    6.45    1.84
   4   3   1    8.73    1.88
   4  -3   2  153.65    9.95
   4  -3   2  160.10   11.93
   4  -3   2  149.31    7.90
   4  -3   2  151.60   11.18
   4   3   2  148.49   10.27
   4   3   2  150.36   10.97
   4   3   2  166.83   12.60
   4   3   2  159.70   11.21
   4   3   2  150.69   11.91
   4  -3   2  148.60    9.95
   4  -3   3   51.66    4.12
   4  -3   3   53.91    4.98
   4  -3   3   51.40    4.36
   4  -3   3   55.35    5.09
   4  -3   3   54.43    3.52
   4   3   3   51.36    4.45
   4   3   3   50.04    4.68
   4   3   3   54.80    5.18
   4   3   3   52.18    5.48
   4   3   3   50.87    5.33
   4  -3   4   73.45    5.38
   4  -3   4   77.37    5.43
   4  -3   4   85.32    6.98
   4  -3   4   74.55    4.56
   4  -3   4   84.19    6.63
   4   3   4   94.46    6.59
   4   3   4   90.08    6.15
   4   3   4   68.42    6.35
   4   3   4   81.81    7.52
   4   3   4   79.29    7.65
   4  -3   5  129.90    7.48
   4  -3   5  130.13    9.06
   4  -3   5  132.76   10.10
   4  -3   5  131.65    9.68
   4  -3   5  126.01    9.09
   4   3   5  133.67    9.34
   4   3   5  132.96   11.08
   4   3   5  128.25   11.22
   4   3   5  127.83   11.45
  -4  -3  -5  122.77    8.57
   4  -3   6  132.63    9.35
   4  -3   6  132.27    7.79
   4  -3   6  127.24    8.90
   4  -3   6  136.72   10.13
   4   3   6  132.27   10.43
   4   3   6  128.73   11.35
   4   3   6  129.94    9.77
   4   3   6  125.79   11.14
   4   3   6  133.26   12.15
   4  -3   6  132.62   10.36
  -4  -3  -6  132.59    8.98
   4  -3   7   26.14    3.37
   4  -3   7   27.16    2.82
   4  -3   7   23.59    2.29
   4  -3   7   28.00    3.15
   4   3   7   26.44    3.30
   4   3   7   24.36    3.62
   4   3   7   20.35    3.99
   4   3   7   20.85    2.92
   4   3   7   32.90    4.33
  -4   3  -7   21.13    5.06
  -4  -3  -7   25.42    2.79
   4  -3   8    2.71    0.77
   4  -3   8    2.65    0.88
   4  -3   8    1.74    0.85
   4   3   8    9.12    1.29
   4   3   8    2.61    1.51
   4   3   8    0.69    1.44
   4   3   8    0.47    1.14
   4   3   8    5.55    1.91
   4  -3   8    2.37    1.16
  -4   3  -8    5.22    2.27
  -4  -3  -8    6.62    1.08
   4  -3   9   46.52    4.39
   4  -3   9   42.01    3.98
   4  -3   9   43.44    4.48
   4  -3   9   49.19    4.39
   4  -3   9   50.19    4.22
   4   3   9   46.89    4.31
   4   3   9   41.66    5.91
   4   3   9   41.10    4.68
   4   3   9   43.33    5.07
   4   3   9   49.26    7.11
  -4   3  -9   46.17    7.47
  -4  -3  -9   46.58    4.38
   4  -3  10    5.06    1.27
   4  -3  10    6.14    1.82
   4  -3  10    7.87    1.83
   4  -3  10    7.26    1.40
   4   3  10    7.96    1.72
   4   3  10    2.71    1.98
   4   3  10    5.79    2.19
   4   3  10    3.86    1.71
   4   3  10    7.52    2.71
  -4   3 -10    5.17    2.44
  -4  -3 -10    4.52    1.19
   4  -3  11    2.96    0.87
   4  -3  11    2.77    1.25
   4  -3  11    2.83    1.46
   4  -3  11    1.02    0.91
   4   3  11    4.38    1.12
   4   3  11    0.49    1.16
   4   3  11    0.52    1.11
   4   3  11    0.33    1.46
   4   3  11    1.97    1.90
  -4   3 -11    1.32    1.47
  -4   3 -11    0.66    1.70
  -4  -3 -11    1.74    0.83
   4  -3  12   23.18    2.84
   4  -3  12   25.31    2.55
   4  -3  12   25.00    3.46
   4   3  12   24.59    3.54
   4   3  12   18.59    4.48
   4   3  12   20.73    3.71
   4   3  12   16.62    4.50
   4   3  12   28.54    5.62
   4  -3  12   20.57    4.56
  -4   3 -12   19.68    4.06
  -4   3 -12   25.81    4.56
  -4  -3 -12   24.15    3.36
   4  -3  13  183.27   15.34
   4  -3  13  171.14   12.68
   4  -3  13  186.88   18.29
   4  -3  13  172.70   13.44
   4   3  13  184.47   15.35
   4   3  13  153.06   17.71
   4   3  13  168.80   18.88
   4   3  13  179.41   16.33
   4   3  13  184.73   21.49
  -4   3 -13  169.37   16.67
  -4   3 -13  174.99   17.51
  -4  -3 -13  171.11   14.19
   4  -3  14   20.03    2.78
   4  -3  14   18.74    2.64
   4  -3  14   16.68    2.33
   4   3  14   23.39    3.48
   4   3  14   12.73    4.20
   4   3  14   13.50    4.40
   4   3  14   20.68    3.66
   4   3  14   19.79    5.44
   4  -3  14   19.53    4.15
  -4   3 -14   19.45    3.97
  -4   3 -14   19.76    3.99
  -4  -3 -14   18.61    3.44
   4  -3  15   68.66    9.06
   4  -3  15   59.75    5.87
   4  -3  15   63.68    5.85
   4   3  15   67.18    6.81
   4   3  15   52.42    9.90
   4   3  15   60.72    9.02
   4   3  15   68.75    7.97
   4   3  15   60.49   11.17
  -4   3 -15   57.23    8.18
  -4   3 -15   59.74    7.93
  -4  -3 -15   64.37    6.88
   4  -3  16    7.52    2.51
   4  -3  16    5.80    1.51
   4  -3  16    4.47    1.40
   4   3  16    5.27    1.79
   4   3  16    2.70    2.43
   4   3  16    4.55    2.15
   4   3  16    5.15    3.20
   4  -3  17   26.19    4.75
   4  -3  17   22.07    3.15
   4   3  17   20.10    3.44
   4   3  17   20.44    4.33
   4   3  17   12.92    4.41
   4   3  17   17.06    6.13
   4  -3  17   20.00    2.79
   4  -3  18   22.96    4.56
   4  -3  18   19.68    3.28
   4   3  18   20.62    3.08
   4   3  18   11.44    4.41
   4   3  18   18.29    3.89
   4   3  18   17.46    5.50
   4  -3  18   18.63    2.97
   4  -3  19    1.13    1.59
   4  -3  19    0.50    1.09
   4  -3  19    0.49    1.01
   4   3  19    3.52    1.03
   4   3  19    0.05    1.59
   4   3  19    0.19    1.29
   4   3  19    3.63    1.88
   4  -3  20    3.39    1.85
   4  -3  20    3.33    1.28
   4  -3  20   -0.54    1.20
   4   3  20    3.11    1.10
   4   3  20    0.41    1.80
   4   3  20    3.22    1.54
   4   3  20    2.47    2.23
   4  -3  21    3.92    1.97
   4  -3  21    3.08    1.30
   4  -3  21   -0.44    1.35
   4   3  21    4.32    1.15
   4   3  21    0.15    1.75
   4   3  21    3.86    1.74
   4   3  21    3.67    1.45
   4  -3  22   11.54    2.03
   4  -3  22    0.44    2.01
   4  -3  22    9.04    2.70
   4   3  22   11.56    1.98
   4   3  22   12.54    2.62
   4   3  22   12.30    3.08
   4  -3  23    0.13    0.71
   4  -3  23    0.86    1.04
   4   3  23    0.14    0.94
   4   3  23    1.18    1.06
   4  -3  24    6.67    1.66
   4   3  24    9.81    2.05
   4   3  24   10.84    2.32
  -4   3 -24    7.72    1.73
   4   4 -24    0.01    0.70
   4   4 -24    0.62    0.64
  -4   4  24    0.04    0.78
   4  -4 -23    0.03    0.60
   4   4 -23   -0.06    0.50
   4   4 -23    0.21    0.76
   4   4 -23    0.16    0.57
  -4   4  23    0.46    0.69
  -4   4  23   -0.12    0.67
   4  -4 -22    0.14    1.05
   4   4 -22    0.08    0.89
   4   4 -22    0.68    1.18
   4   4 -22    0.45    1.05
  -4   4  22    2.98    1.27
  -4   4  22    2.82    1.22
   4   4 -21    2.32    1.18
   4   4 -21    3.78    1.65
   4   4 -21    1.11    1.46
   4  -4 -21    0.50    1.50
  -4   4  21    4.63    1.88
  -4   4  21    2.28    1.64
   4  -4 -20   20.65    4.38
   4   4 -20   25.20    3.93
   4   4 -20   25.88    4.95
   4   4 -20   23.79    4.24
  -4   4  20   22.07    4.79
   4  -4 -19   88.07   10.70
   4  -4 -19   93.50    9.43
   4   4 -19   91.92    9.95
   4   4 -19   93.39   10.88
   4   4 -19   90.18   10.42
  -4   4  19   84.12    9.38
   4  -4 -18   25.32    5.23
   4  -4 -18   28.72    4.26
   4   4 -18   25.28    4.44
   4   4 -18   22.35    4.61
   4   4 -18   22.13    4.78
  -4   4  18   25.62    5.05
   4  -4 -17   44.96    5.86
   4  -4 -17   48.20    5.98
   4   4 -17   50.04    6.27
   4   4 -17   37.57    6.15
   4   4 -17   47.28    5.65
  -4   4  17   46.65    7.74
   4  -4 -16   14.79    4.42
   4  -4 -16   16.23    3.37
   4   4 -16   17.85    3.47
   4   4 -16   17.77    3.27
   4   4 -16   16.60    4.15
   4   4 -16   18.62    3.64
   4   4 -16   17.99    3.94
  -4   4  16   18.00    4.23
   4  -4 -15    2.40    2.14
   4  -4 -15    3.34    2.26
   4  -4 -15    3.51    1.83
   4   4 -15    3.82    2.51
   4   4 -15    5.18    2.01
   4   4 -15    4.29    1.65
   4   4 -15    3.32    2.01
   4   4 -15    4.72    2.06
   4   4 -15    3.81    1.43
  -4   4  15    3.16    2.13
  -4  -4  15    3.60    1.64
   4  -4 -14   13.19    3.93
   4  -4 -14   12.48    2.96
   4  -4 -14   16.06    3.29
   4   4 -14   14.33    4.11
   4   4 -14   17.16    3.46
   4   4 -14   14.78    2.90
   4   4 -14   16.09    3.55
   4   4 -14   13.08    3.57
   4   4 -14   12.53    3.38
  -4   4  14   16.27    3.70
  -4  -4  14   13.79    2.83
   4  -4 -13  144.53   16.49
   4  -4 -13  153.38   14.80
   4   4 -13  143.76   14.84
   4   4 -13  145.18   14.68
   4   4 -13  159.48   16.20
   4   4 -13  153.94   12.25
   4   4 -13  153.93   15.88
   4   4 -13  163.26   15.85
   4  -4 -13  154.83   16.67
  -4   4  13  141.12   15.92
  -4  -4  13  138.82   10.73
  -4  -4  13  149.96   13.46
   4  -4 -12   89.96   10.94
   4  -4 -12   91.04   10.67
   4  -4 -12   93.08    9.81
   4   4 -12   85.79   10.49
   4   4 -12   94.64   10.96
   4   4 -12   94.71    9.13
   4   4 -12   92.49   10.28
   4   4 -12   88.95    9.72
   4   4 -12   94.24    8.34
   4   4 -12   89.09   10.46
  -4   4  12   78.11   10.29
  -4  -4  12   85.45    8.45
   4  -4 -11  370.90   33.06
   4  -4 -11  434.32   28.83
   4  -4 -11  454.75   39.41
   4  -4 -11  444.30   30.45
   4  -4 -11  434.33   37.27
   4   4 -11  416.28   35.82
   4   4 -11  427.33   36.88
   4   4 -11  429.99   33.16
   4   4 -11  445.84   36.20
   4   4 -11  449.33   38.88
   4   4 -11  453.74   32.25
   4   4 -11  440.73   37.65
  -4  -4  11  416.83   30.57
   4  -4 -10   57.42    7.05
   4  -4 -10   63.78    5.86
   4  -4 -10   66.23    7.83
   4  -4 -10   66.40    8.04
   4   4 -10   66.67    7.36
   4   4 -10   59.29    6.59
   4   4 -10   65.51    6.41
   4   4 -10   64.68    7.25
   4   4 -10   69.58    8.12
   4   4 -10   66.46    6.10
   4   4 -10   63.87    6.55
   4  -4 -10   72.16    6.62
  -4  -4  10   58.48    5.93
   4  -4  -9  382.09   29.87
   4  -4  -9  322.80   27.44
   4  -4  -9  382.80   25.74
   4  -4  -9  408.93   27.69
   4  -4  -9  405.38   31.77
   4   4  -9  400.14   32.18
   4   4  -9  312.07   24.90
   4   4  -9  397.06   27.27
   4   4  -9  360.08   28.65
   4   4  -9  370.05   27.49
   4   4  -9  369.19   29.04
   4   4  -9  390.72   30.43
  -4  -4   9  359.02   25.75
   4  -4  -8  240.13   20.71
   4  -4  -8  243.03   17.69
   4  -4  -8  250.34   20.84
   4  -4  -8  259.04   18.37
   4  -4  -8  263.33   21.71
   4   4  -8  213.09   16.60
   4   4  -8  246.71   22.02
   4   4  -8  235.64   17.92
   4   4  -8  258.46   18.20
   4   4  -8  246.17   19.05
   4   4  -8  247.26   20.43
   4   4  -8  249.91   19.76
  -4   4   8  262.18   22.08
  -4   4   8  241.21   19.50
  -4  -4   8  237.20   17.25
   4  -4  -7  243.32   20.42
   4  -4  -7  248.15   17.92
   4  -4  -7  250.91   20.53
   4  -4  -7  263.49   18.92
   4  -4  -7  279.55   22.09
   4   4  -7  256.23   19.38
   4   4  -7  249.53   18.83
   4   4  -7  243.82   21.74
   4   4  -7  272.69   21.38
   4   4  -7  245.94   18.75
   4   4  -7  260.30   18.75
  -4   4   7  250.91   20.64
  -4   4   7  242.94   20.45
  -4  -4   7  250.54   17.41
   4  -4  -6  147.60   13.12
   4  -4  -6  148.39   12.80
   4  -4  -6  153.37   11.75
   4  -4  -6  161.33   13.50
   4   4  -6  140.99   10.83
   4   4  -6  149.59   13.81
   4   4  -6  158.85   13.21
   4   4  -6  143.65   11.31
   4   4  -6  154.54   11.75
   4  -4  -6  148.04   11.05
  -4   4   6  146.40   12.77
  -4   4   6  151.41   12.58
  -4  -4   6  136.99    9.99
   4  -4  -5   54.59    5.82
   4  -4  -5   52.91    6.08
   4  -4  -5   59.45    5.22
   4  -4  -5   58.67    4.60
   4  -4  -5   63.14    6.19
   4   4  -5   52.71    4.86
   4   4  -5   55.80    5.40
   4   4  -5   53.01    4.94
   4   4  -5   58.82    5.30
   4   4  -5   56.99    5.84
  -4   4   5   52.44    5.73
  -4   4   5   56.18    5.61
  -4  -4   5   49.40    4.35
   4  -4  -4   43.42    4.45
   4  -4  -4   45.30    4.80
   4  -4  -4   41.86    4.05
   4  -4  -4   39.19    4.63
   4  -4  -4   45.87    4.48
   4   4  -4   36.74    4.06
   4   4  -4   39.15    3.49
   4   4  -4   40.62    5.05
   4   4  -4   39.56    5.04
   4   4  -4   43.93    4.00
   4   4  -4   42.84    4.32
  -4   4   4   37.99    4.22
  -4   4   4   40.24    4.35
   4  -4  -3  142.78   12.02
   4  -4  -3  126.35    9.23
   4  -4  -3  127.28    9.76
   4  -4  -3  124.34   10.35
   4  -4  -3  129.88   10.50
   4   4  -3  123.85    9.82
   4   4  -3  122.70   11.05
   4   4  -3  133.26   11.47
   4   4  -3  122.43    9.21
   4   4  -3  128.32   10.19
  -4   4   3  132.59   10.24
   4  -4  -2   18.43    2.32
   4  -4  -2   17.32    2.68
   4  -4  -2   17.19    2.69
   4   4  -2   17.89    2.67
   4   4  -2   19.99    3.02
   4   4  -2   18.33    2.84
   4   4  -2   17.54    2.64
   4  -4  -2   16.69    2.08
  -4   4   2   18.79    2.59
  -4  -4   2   18.46    1.78
   4  -4  -1  339.08   21.25
   4  -4  -1  315.19   20.64
   4  -4  -1  257.00   19.90
   4   4  -1  311.52   21.55
   4   4  -1  359.00   25.02
   4   4  -1  323.33   24.67
   4   4  -1  341.45   23.55
   4  -4  -1  337.38   23.38
  -4   4   1  311.07   21.92
  -4  -4   1  327.27   16.86
   4  -4   0   51.59    4.49
   4  -4   0   49.48    4.85
   4  -4   0   50.17    4.26
   4  -4   0   50.96    5.15
   4  -4   0   50.92    3.85
   4   4   0   45.36    4.20
   4   4   0   52.10    4.17
   4   4   0   56.22    5.40
   4   4   0   49.54    5.35
   4   4   0   48.97    5.06
  -4  -4   0   48.94    3.56
   4  -4   1    2.10    1.27
   4  -4   1    2.62    0.88
   4  -4   1    1.14    0.97
   4  -4   1    2.54    0.71
   4  -4   1    2.74    0.80
   4   4   1    1.90    0.83
   4   4   1    1.14    1.13
   4   4   1    2.15    1.07
   4   4   1    2.67    1.16
  -4  -4  -1    1.92    0.67
   4  -4   2   67.29    5.98
   4  -4   2   66.02    6.38
   4  -4   2   65.74    5.29
   4  -4   2   63.45    4.53
   4   4   2   66.99    5.30
   4   4   2   63.44    6.53
   4   4   2   68.88    6.69
   4   4   2   71.91    6.00
   4  -4   2   63.56    4.67
  -4  -4  -2   62.38    4.63
   4  -4   3   25.80    3.09
   4  -4   3   25.00    2.70
   4  -4   3   23.54    2.95
   4  -4   3   25.85    2.37
   4  -4   3   24.12    3.07
   4   4   3   24.32    2.87
   4   4   3   24.25    3.23
   4   4   3   24.36    3.53
   4   4   3   24.87    3.51
  -4  -4  -3   21.51    2.35
   4  -4   4    9.18    1.80
   4  -4   4    8.02    1.51
   4  -4   4    8.55    1.35
   4  -4   4    7.68    1.30
   4   4   4    9.28    1.30
   4   4   4    6.78    1.46
   4   4   4    7.13    1.92
   4   4   4   10.08    2.14
   4  -4   4    7.34    1.67
  -4  -4  -4    8.48    1.46
   4  -4   5  113.05    7.46
   4  -4   5  110.14    8.05
   4  -4   5  115.77    9.02
   4  -4   5  109.68    7.19
   4  -4   5  110.01    8.93
   4   4   5  116.72    9.07
   4   4   5  108.60   10.36
   4   4   5   96.33    9.12
   4   4   5  109.35    9.63
   4  -4   5  110.18    8.43
  -4  -4  -5  111.29    7.96
   4  -4   6   29.34    3.36
   4  -4   6   27.22    2.59
   4  -4   6   29.42    3.10
   4  -4   6   26.94    2.67
   4  -4   6   28.91    3.25
   4   4   6   28.53    3.66
   4   4   6   27.53    4.32
   4   4   6   22.84    3.93
   4   4   6   26.36    4.37
  -4   4  -6   26.70    5.82
  -4  -4  -6   27.47    3.11
   4  -4   7   75.19    5.68
   4  -4   7   77.44    6.30
   4  -4   7   71.79    6.59
   4  -4   7   71.14    5.50
   4  -4   7   81.55    6.81
   4   4   7   76.20    7.26
   4   4   7   67.12    8.11
   4   4   7   69.54    8.15
   4   4   7   73.09    6.64
   4   4   7   80.63    8.67
  -4   4  -7   73.59   10.38
  -4  -4  -7   71.63    6.25
   4  -4   8  113.47    8.57
   4  -4   8  107.40    8.44
   4  -4   8  102.55    7.82
   4  -4   8  107.32    9.03
   4   4   8  129.72   10.35
   4   4   8   95.13   10.48
   4   4   8  100.43   11.02
   4   4   8  106.16    9.42
   4   4   8  102.43   11.72
   4  -4   8  109.80    9.27
  -4   4  -8  107.97   14.84
  -4  -4  -8  108.63    8.61
   4  -4   9    5.79    1.42
   4  -4   9    5.21    0.99
   4  -4   9    7.77    1.68
   4  -4   9    6.51    1.46
   4  -4   9    5.42    1.63
   4   4   9    5.70    1.73
   4   4   9    6.93    2.15
   4   4   9    3.70    2.00
   4   4   9    2.89    1.54
   4   4   9    6.95    2.42
  -4   4  -9    6.98    2.76
  -4  -4  -9    5.38    1.48
   4  -4  10  100.16    8.06
   4  -4  10   97.09    8.92
   4  -4  10  104.28    8.81
   4   4  10   98.89    9.39
   4   4  10   81.69   10.24
   4   4  10   82.19   10.70
   4   4  10   91.60    9.09
   4   4  10   97.73   12.21
   4  -4  10  104.57    8.38
   4  -4  10   96.99    7.93
  -4   4 -10   93.99   12.30
  -4  -4 -10  107.92    9.29
   4  -4  11   23.94    3.07
   4  -4  11   26.12    3.03
   4  -4  11   21.88    3.57
   4   4  11   18.29    4.53
   4   4  11   25.26    3.91
   4   4  11   21.74    4.57
   4   4  11   20.28    3.66
   4   4  11   24.93    5.26
   4  -4  11   29.15    3.70
  -4   4 -11   15.41    4.39
  -4   4 -11   27.28    4.79
  -4  -4 -11   27.98    3.71
   4  -4  12    6.25    1.31
   4  -4  12    2.99    1.28
   4  -4  12    5.73    1.66
   4   4  12    5.96    1.70
   4   4  12    1.49    2.24
   4   4  12    2.83    2.05
   4   4  12    2.32    1.73
   4   4  12    4.98    2.60
   4  -4  12    7.22    2.05
  -4   4 -12    2.06    1.45
  -4   4 -12    3.12    2.15
  -4  -4 -12    5.55    1.91
   4  -4  13  156.96   12.38
   4  -4  13  179.66   17.24
   4  -4  13  157.21   13.85
   4  -4  13  168.73   12.81
   4   4  13  171.42   15.08
   4   4  13  134.60   17.93
   4   4  13  141.95   17.53
   4   4  13  155.84   14.96
   4   4  13  146.89   19.33
  -4   4 -13  158.82   16.34
  -4   4 -13  160.87   16.41
  -4  -4 -13  157.58   13.88
   4  -4  14   10.86    2.06
   4  -4  14   15.96    3.31
   4  -4  14   12.12    2.15
   4   4  14   12.81    2.79
   4   4  14   10.33    2.91
   4   4  14    8.13    3.86
   4   4  14   10.33    3.07
   4   4  14   10.82    3.02
  -4   4 -14   11.76    3.26
  -4   4 -14   11.33    3.27
  -4  -4 -14   13.57    2.74
   4  -4  15   11.65    3.15
   4  -4  15   13.96    2.23
   4   4  15   10.87    2.65
   4   4  15   10.29    4.34
   4   4  15    5.97    3.54
   4   4  15   10.07    3.07
   4   4  15   10.81    2.91
   4  -4  15   12.65    2.13
  -4   4 -15   12.77    3.05
  -4   4 -15    7.99    3.15
  -4  -4 -15   10.06    1.94
   4  -4  16   24.12    4.35
   4  -4  16   20.14    2.75
   4   4  16   20.52    3.39
   4   4  16   17.94    4.25
   4   4  16   14.35    4.88
   4   4  16   19.53    5.52
   4  -4  16   19.29    2.94
  -4   4 -16   19.56    4.00
   4  -4  17   27.11    5.12
   4  -4  17   22.92    3.51
   4   4  17   24.03    3.75
   4   4  17   22.58    4.44
   4   4  17   18.83    5.23
   4   4  17   39.04    6.25
  -4   4 -17   25.06    4.39
   4  -4  18    1.69    1.60
   4  -4  18    2.37    1.12
   4  -4  18    0.35    1.01
   4   4  18    2.19    1.10
   4   4  18    0.58    1.10
   4   4  18    0.43    1.60
   4   4  18    3.45    1.74
   4  -4  19   30.19    6.15
   4  -4  19   49.62    4.72
   4   4  19   48.85    5.10
   4   4  19   24.29    6.15
   4   4  19   52.79    6.78
   4   4  19   37.23    7.63
   4  -4  20    0.24    1.54
   4  -4  20    3.05    1.21
   4  -4  20   -0.13    1.10
   4   4  20    4.05    1.07
   4   4  20    0.07    1.54
   4   4  20    3.44    1.56
   4   4  20    3.26    1.89
   4  -4  21    0.14    2.47
   4  -4  21   11.58    1.91
   4  -4  21    3.41    1.98
   4   4  21   12.81    1.93
   4   4  21    0.51    2.30
   4   4  21   11.45    2.53
   4   4  21   14.52    2.91
   4  -4  22   11.02    1.94
   4  -4  22    4.42    2.40
   4  -4  22    5.48    3.11
   4   4  22    0.14    2.69
   4   4  22   12.37    2.52
   4   4  22   16.43    2.79
   4  -4  23   60.12    5.90
   4   4  23   58.41    6.27
   4   4  23   55.30    6.92
   4   5 -23   18.43    2.18
   4   5 -23   19.51    2.60
  -4   5  23    0.33    2.53
  -4   5  23   16.20    3.46
   4   5 -22    7.96    1.55
   4   5 -22    0.41    2.03
   4   5 -22    5.82    1.89
  -4   5  22    6.91    2.14
  -4   5  22    7.16    2.09
   4   5 -21    1.03    1.05
   4   5 -21    0.60    1.44
   4   5 -21    2.71    1.24
  -4   5  21    3.04    1.52
  -4   5  21    1.41    1.52
   4  -5 -20   12.36    3.03
   4   5 -20   15.41    2.55
   4   5 -20    0.36    2.44
   4   5 -20   14.47    2.76
  -4   5  20   12.33    3.31
  -4   5  20   19.10    3.37
   4  -5 -19    7.31    2.39
   4   5 -19   -0.06    2.00
   4   5 -19    8.65    2.11
   4   5 -19    6.89    2.06
  -4   5  19    5.80    2.61
  -4   5  19    8.81    2.69
   4  -5 -18   -0.19    2.21
   4  -5 -18    5.14    2.38
   4   5 -18    6.91    1.54
   4   5 -18    5.02    2.06
   4   5 -18    7.09    2.16
  -4   5  18    6.83    2.66
  -4   5  18    8.46    2.73
   4  -5 -17    0.77    1.35
   4  -5 -17    3.07    1.30
   4  -5 -17    0.47    1.13
   4   5 -17    0.41    1.27
   4   5 -17    1.12    1.15
   4   5 -17    0.26    1.33
   4   5 -17    0.48    0.91
   4   5 -17    0.30    1.23
  -4   5  17    5.10    1.76
  -4   5  17    4.65    1.59
   4  -5 -16    6.02    2.60
   4  -5 -16    5.75    2.56
   4   5 -16    9.33    2.52
   4   5 -16    7.49    2.14
   4   5 -16    6.44    2.71
   4   5 -16    6.36    2.43
   4   5 -16    8.58    2.59
   4  -5 -16    7.37    2.17
  -4   5  16    5.90    3.19
  -4   5  16    7.97    3.04
  -4  -5  16    9.28    1.83
   4  -5 -15    0.65    1.17
   4  -5 -15    0.69    1.26
   4  -5 -15    0.87    1.07
   4   5 -15    0.64    1.25
   4   5 -15    1.04    0.98
   4   5 -15    0.61    1.13
   4   5 -15    0.69    1.18
   4   5 -15    2.64    1.19
  -4   5  15    0.39    1.48
  -4   5  15    0.81    1.41
  -4  -5  15    0.25    0.85
   4  -5 -14    5.04    2.75
   4  -5 -14    5.06    2.15
   4  -5 -14    2.56    2.12
   4  -5 -14    7.25    1.97
   4   5 -14    5.31    2.14
   4   5 -14    3.32    2.37
   4   5 -14    4.81    1.85
   4   5 -14    6.17    2.29
   4   5 -14    7.38    2.11
  -4   5  14    4.38    2.64
  -4   5  14    5.02    2.52
  -4  -5  14    5.99    1.54
  -4  -5  14    5.64    1.88
   4  -5 -13   29.39    4.56
   4  -5 -13   32.12    4.89
   4  -5 -13   29.54    5.20
   4  -5 -13   27.17    3.73
   4   5 -13   43.66    5.87
   4   5 -13   32.77    4.44
   4   5 -13   32.24    4.99
   4   5 -13   36.42    5.44
   4   5 -13   29.72    4.07
   4  -5 -13   34.07    3.70
  -4   5  13   30.57    6.19
  -4   5  13   29.69    4.47
  -4  -5  13   29.98    3.57
  -4  -5  13   31.14    4.64
   4  -5 -12  145.93   15.16
   4  -5 -12  147.15   16.05
   4  -5 -12  143.68   13.83
   4  -5 -12  149.36   11.42
   4  -5 -12  140.04   13.88
   4   5 -12  152.57   15.98
   4   5 -12  135.67   11.35
   4   5 -12  136.84   13.34
   4   5 -12  146.47   15.63
   4   5 -12  151.69   13.02
   4   5 -12  144.78   15.28
  -4   5  12  149.85   16.53
  -4   5  12  140.98   15.64
  -4  -5  12  139.64   12.66
   4  -5 -11  163.59   14.78
   4  -5 -11  158.06   12.00
   4  -5 -11  172.44   16.28
   4  -5 -11  167.19   15.56
   4  -5 -11  167.65   13.82
   4   5 -11  164.82   16.79
   4   5 -11  153.57   13.55
   4   5 -11  164.81   17.46
   4   5 -11  171.31   14.34
   4   5 -11  164.85   16.25
   4   5 -11  162.87   14.78
   4  -5 -11  169.89   16.74
  -4   5  11  165.56   18.06
  -4   5  11  152.83   17.19
  -4  -5  11  152.32   12.13
   4  -5 -10    7.70    2.33
   4  -5 -10    9.99    2.15
   4  -5 -10    7.75    1.85
   4  -5 -10    7.60    2.55
   4  -5 -10    8.79    2.14
   4   5 -10    9.21    2.81
   4   5 -10    7.14    1.99
   4   5 -10    6.57    1.75
   4   5 -10    8.14    1.96
   4   5 -10    6.72    2.33
   4  -5 -10    8.39    2.51
  -4   5  10    7.04    2.68
  -4   5  10    6.20    2.57
  -4  -5  10    6.11    1.97
   4  -5  -9   10.33    2.91
   4  -5  -9    9.05    2.17
   4  -5  -9    7.53    2.25
   4  -5  -9   10.20    2.85
   4  -5  -9    9.11    2.75
   4  -5  -9   11.96    2.54
   4   5  -9   10.82    3.10
   4   5  -9   12.20    2.19
   4   5  -9   14.39    2.90
   4   5  -9    9.23    2.22
   4   5  -9   11.58    2.53
  -4   5   9   11.35    2.89
  -4   5   9    8.69    2.88
  -4  -5   9   13.35    2.26
   4  -5  -8  233.88   20.56
   4  -5  -8  226.31   17.77
   4  -5  -8  230.01   17.73
   4  -5  -8  231.88   18.48
   4  -5  -8  246.60   19.30
   4   5  -8  228.42   21.58
   4   5  -8  221.54   17.37
   4   5  -8  234.31   18.15
   4   5  -8  226.58   18.26
   4   5  -8  242.12   20.94
   4  -5  -8  236.51   20.05
  -4   5   8  237.50   21.34
  -4   5   8  225.64   19.57
  -4  -5   8  220.70   16.23
   4  -5  -7   12.69    2.16
   4  -5  -7   13.13    2.40
   4  -5  -7   16.21    2.65
   4  -5  -7   13.55    2.36
   4  -5  -7   11.31    2.30
   4  -5  -7   17.02    2.81
   4   5  -7   17.00    3.16
   4   5  -7   14.66    3.02
   4   5  -7   12.86    2.46
   4   5  -7   13.81    2.36
  -4   5   7   11.54    3.14
  -4   5   7   12.62    2.89
  -4  -5   7   12.08    2.16
   4  -5  -6   44.96    5.09
   4  -5  -6   41.36    4.46
   4  -5  -6   42.85    4.65
   4  -5  -6   50.14    5.26
   4  -5  -6   45.78    5.20
   4   5  -6   44.14    5.28
   4   5  -6   42.18    4.60
   4   5  -6   39.23    4.62
   4   5  -6   44.82    4.77
   4  -5  -6   48.67    6.07
  -4   5   6   39.88    5.54
  -4   5   6   43.11    5.40
  -4  -5   6   36.91    4.14
   4  -5  -5   67.72    6.28
   4  -5  -5   67.70    6.39
   4  -5  -5   63.18    6.78
   4  -5  -5   74.80    7.05
   4  -5  -5   71.14    7.08
   4   5  -5   64.92    7.71
   4   5  -5   67.22    6.01
   4   5  -5   69.45    6.74
   4  -5  -5   79.54    8.00
  -4   5   5   62.96    7.04
  -4   5   5   71.32    7.21
  -4  -5   5   58.63    5.47
   4  -5  -4    0.49    0.65
   4  -5  -4    1.36    0.72
   4  -5  -4    0.09    0.54
   4  -5  -4    0.65    0.84
   4  -5  -4    0.51    0.81
   4   5  -4    0.42    0.53
   4   5  -4    0.44    0.87
   4   5  -4    2.42    0.97
   4   5  -4    0.18    0.79
  -4   5   4    0.24    0.80
  -4   5   4    0.09    0.86
   4  -5  -3   56.87    5.12
   4  -5  -3   55.89    5.80
   4  -5  -3   56.22    4.80
   4  -5  -3   60.79    6.28
   4   5  -3   49.72    5.78
   4   5  -3   59.00    6.65
   4   5  -3   52.36    6.32
   4   5  -3   59.72    6.08
   4  -5  -3   56.73    5.53
  -4   5   3   55.14    5.91
  -4   5   3   59.69    6.19
   4  -5  -2   49.90    4.65
   4  -5  -2   54.90    5.50
   4  -5  -2   51.45    5.91
   4  -5  -2   49.95    5.53
   4   5  -2   45.01    5.12
   4   5  -2   46.11    5.72
   4   5  -2   51.80    6.05
   4   5  -2   48.95    5.46
   4  -5  -2   48.70    4.80
  -4   5   2   47.78    5.28
   4  -5  -1    7.64    1.42
   4  -5  -1    7.59    1.88
   4  -5  -1    7.62    1.78
   4  -5  -1   11.04    1.83
   4   5  -1    4.19    1.80
   4   5  -1    5.50    2.02
   4   5  -1    6.81    2.07
   4   5  -1    6.57    1.89
   4  -5  -1    5.88    1.57
  -4   5   1    6.28    1.83
  -4  -5   1    6.67    1.10
   4  -5   0    1.66    0.81
   4  -5   0    2.50    0.71
   4  -5   0    2.29    1.09
   4  -5   0    2.01    0.79
   4  -5   0    1.90    0.71
   4   5   0    1.80    1.21
   4   5   0    2.34    0.79
   4   5   0    0.57    1.28
   4   5   0    2.26    1.25
   4   5   0    1.77    0.84
   4  -5   0    4.13    1.10
  -4  -5   0    1.19    0.71
   4  -5   1   71.68    5.85
   4  -5   1   71.19    6.17
   4  -5   1   75.13    6.82
   4  -5   1   74.30    6.75
   4  -5   1   74.04    6.88
   4  -5   1   72.20    5.79
   4   5   1   77.70    6.13
   4   5   1   74.92    7.81
   4   5   1   74.60    8.08
   4   5   1   73.49    8.37
   4   5   1   75.49    7.68
  -4  -5  -1   76.21    5.66
   4  -5   2    7.75    1.52
   4  -5   2   11.38    1.73
   4  -5   2    8.21    2.09
   4  -5   2    8.49    1.86
   4  -5   2   10.37    1.55
   4   5   2    8.71    1.60
   4   5   2    6.31    1.69
   4   5   2    7.66    2.29
   4   5   2    8.28    2.30
   4  -5   2    8.16    1.91
  -4  -5  -2    9.79    1.58
   4  -5   3   15.52    2.62
   4  -5   3   12.57    1.84
   4  -5   3   12.28    2.05
   4  -5   3   12.82    2.16
   4  -5   3   13.33    2.41
   4  -5   3   13.11    1.91
   4   5   3   13.49    2.08
   4   5   3   10.81    1.93
   4   5   3   14.66    3.03
   4   5   3   14.80    2.94
  -4  -5  -3   12.41    2.02
   4  -5   4   38.24    3.63
   4  -5   4   40.03    4.44
   4  -5   4   37.92    3.93
   4  -5   4   36.58    4.00
   4  -5   4   38.54    4.43
   4   5   4   37.67    3.45
   4   5   4   31.44    4.43
   4   5   4   36.49    4.34
   4   5   4   36.37    4.99
   4  -5   4   37.40    3.59
  -4  -5  -4   34.76    3.92
   4  -5   5   21.95    2.84
   4  -5   5   19.19    2.40
   4  -5   5   19.13    2.44
   4  -5   5   19.62    2.77
   4  -5   5   21.13    2.57
   4   5   5   20.04    2.80
   4   5   5   14.10    3.23
   4   5   5   16.46    3.49
   4   5   5   19.62    3.45
  -4   5  -5   19.15    5.00
  -4  -5  -5   17.00    2.74
   4  -5   6   58.29    5.49
   4  -5   6   58.00    4.64
   4  -5   6   61.84    5.40
   4  -5   6   58.33    5.69
   4  -5   6   57.33    4.92
   4   5   6   59.25    6.03
   4   5   6   45.21    6.18
   4   5   6   53.90    6.91
   4   5   6   57.58    7.45
  -4   5  -6   57.33    9.42
  -4  -5  -6   61.22    5.80
   4  -5   7   32.31    3.32
   4  -5   7   26.44    2.94
   4  -5   7   34.23    3.78
   4  -5   7   27.00    3.12
   4  -5   7   26.25    3.42
   4   5   7   26.04    4.53
   4   5   7   29.77    3.89
   4   5   7   25.99    4.86
   4   5   7   29.18    4.97
  -4   5  -7   30.83    6.61
  -4  -5  -7   24.97    3.67
   4  -5   8   32.99    3.45
   4  -5   8   31.56    3.62
   4  -5   8   32.41    4.03
   4  -5   8   33.11    3.90
   4   5   8   31.94    4.04
   4   5   8   29.60    4.06
   4   5   8   28.36    4.74
   4   5   8   31.10    4.23
   4   5   8   27.64    5.41
   4  -5   8   30.16    3.51
  -4   5  -8   34.22    6.81
  -4  -5  -8   30.27    3.64
   4  -5   9  144.56   10.98
   4  -5   9  146.59   11.54
   4  -5   9  144.40   12.10
   4  -5   9  134.32   10.94
   4  -5   9  148.32   11.85
   4   5   9  138.45   12.44
   4   5   9  108.83   13.19
   4   5   9  131.08   14.00
   4   5   9  139.17   13.09
   4   5   9  133.14   15.55
  -4   5  -9  129.17   16.39
  -4  -5  -9  130.87   11.05
   4  -5  10    6.04    1.61
   4  -5  10    7.04    1.49
   4  -5  10    7.47    1.89
   4   5  10    4.88    2.12
   4   5  10    6.96    2.44
   4   5  10    6.22    2.36
   4   5  10    4.12    1.96
   4   5  10    4.41    1.97
   4  -5  10    7.85    1.68
  -4   5 -10    4.58    2.37
  -4   5 -10    5.91    3.04
  -4  -5 -10    5.18    1.79
   4  -5  11    9.58    1.92
   4  -5  11    8.51    1.67
   4  -5  11    9.01    2.04
   4  -5  11   10.61    2.44
   4   5  11    9.32    2.58
   4   5  11    8.75    2.99
   4   5  11    7.51    2.97
   4   5  11    8.67    2.53
   4   5  11    8.30    3.43
  -4   5 -11    6.80    2.86
  -4   5 -11   12.02    3.14
  -4  -5 -11    6.96    2.13
   4  -5  12   77.62    6.75
   4  -5  12   85.18    8.82
   4  -5  12   78.72    7.23
   4  -5  12   77.91    8.39
   4   5  12   81.50    8.82
   4   5  12   56.01    9.86
   4   5  12   67.04   10.25
   4   5  12   73.09    9.25
   4   5  12   78.13   11.65
  -4   5 -12   66.88    9.07
  -4   5 -12   73.13    8.21
  -4  -5 -12   78.76    7.80
   4  -5  13   33.92    4.15
   4  -5  13   40.15    4.49
   4   5  13   39.64    5.29
   4   5  13   32.27    6.87
   4   5  13   30.36    5.18
   4   5  13   33.75    5.58
   4   5  13   33.92    5.84
  -4   5 -13   35.44    5.84
  -4   5 -13   40.75    4.93
  -4  -5 -13   35.51    4.88
   4  -5  14    3.11    1.37
   4  -5  14    5.13    1.35
   4   5  14    3.44    1.67
   4   5  14    1.77    2.30
   4   5  14    3.63    1.98
   4   5  14    5.22    2.70
  -4   5 -14    5.07    2.15
   4  -5  15   36.21    4.27
   4  -5  15   36.94    5.78
   4   5  15   41.20    4.96
   4   5  15   29.12    6.82
   4   5  15   34.40    6.11
   4   5  15   30.54    7.55
  -4   5 -15   37.90    5.91
   4  -5  16   25.66    3.23
   4  -5  16    7.85    3.79
   4   5  16   24.09    3.56
   4   5  16   18.45    5.04
   4   5  16   21.19    4.63
   4   5  16   13.34    5.10
  -4   5 -16   26.21    4.27
   4  -5  17    2.17    1.09
   4  -5  17    0.09    1.45
   4   5  17    1.49    1.20
   4   5  17    0.15    1.78
   4   5  17    0.41    1.48
   4   5  17    5.01    1.90
  -4   5 -17    4.15    1.53
   4  -5  18    4.98    1.44
   4  -5  18    0.44    1.90
   4   5  18    3.83    1.43
   4   5  18    4.33    2.15
   4   5  18    4.43    2.06
   4   5  18    4.97    2.40
  -4   5 -18    3.85    1.82
   4  -5  19    0.09    1.41
   4  -5  19    1.96    1.00
   4  -5  19    0.06    0.95
   4   5  19    4.00    1.05
   4   5  19    0.59    1.45
   4   5  19    1.68    1.41
   4   5  19    1.43    1.71
   4  -5  20    0.10    1.51
   4  -5  20    2.31    1.02
   4  -5  20    1.79    1.05
   4   5  20    3.79    1.08
   4   5  20   -0.01    1.43
   4   5  20    1.42    1.44
   4   5  20    3.17    1.74
   4  -5  21    0.42    0.94
   4  -5  21    0.43    0.54
   4  -5  21   -0.04    0.63
   4   5  21    0.03    0.76
   4   5  21    0.02    0.54
   4   5  21    0.56    0.88
   4  -5  22    4.07    1.31
   4   5  22    0.90    1.89
   4   5  22    8.66    1.89
  -4   5 -23    0.78    0.74
   4   6 -22    4.85    1.54
   4   6 -22    4.64    1.57
  -4   6  22    4.68    1.89
  -4   6  22    5.08    1.83
   4   6 -21    5.90    1.74
   4   6 -21    8.60    2.00
  -4   6  21    8.09    2.44
  -4   6  21    6.96    2.35
   4   6 -20    1.25    1.24
   4   6 -20    2.95    1.39
  -4   6  20    4.10    1.65
  -4   6  20    1.68    1.68
   4   6 -19    4.88    1.48
   4   6 -19    3.29    1.54
   4  -6 -19   -0.30    1.58
  -4   6  19    2.93    1.95
  -4   6  19    4.72    1.98
   4   6 -18   21.27    3.84
   4   6 -18   24.79    4.30
  -4   6  18   21.19    4.95
  -4   6  18   24.13    5.00
  -4  -6  18   22.67    3.16
   4   6 -17   89.39    9.46
   4   6 -17   87.92    8.89
   4   6 -17   81.84    9.31
   4   6 -17   93.85   10.16
  -4   6  17   84.63   11.49
  -4   6  17   82.96    9.77
  -4  -6  17   84.50    8.07
   4  -6 -16   29.54    5.22
   4   6 -16   32.49    5.50
   4   6 -16   34.69    4.42
   4   6 -16   31.62    4.90
   4   6 -16   28.92    5.09
  -4   6  16   32.17    6.43
  -4   6  16   32.87    6.25
  -4  -6  16   30.79    3.77
   4  -6 -15    0.54    1.77
   4   6 -15    3.30    1.79
   4   6 -15    3.94    1.44
   4   6 -15    3.01    1.34
   4   6 -15    2.91    1.53
   4  -6 -15    1.31    1.72
  -4   6  15    3.57    2.23
  -4   6  15    2.65    2.34
  -4  -6  15    2.66    1.24
   4  -6 -14   24.50    4.90
   4  -6 -14   27.74    4.71
   4  -6 -14   30.09    4.07
   4  -6 -14   27.37    4.28
   4   6 -14   29.75    5.22
   4   6 -14   29.28    4.05
   4   6 -14   30.42    5.37
   4   6 -14   27.69    4.54
  -4   6  14   24.81    5.72
  -4   6  14   28.02    6.14
  -4  -6  14   27.99    3.42
   4  -6 -13    1.23    0.96
   4  -6 -13    0.40    1.55
   4  -6 -13    1.07    1.32
   4   6 -13    2.13    1.14
   4   6 -13    2.50    1.25
   4   6 -13    4.38    1.85
   4   6 -13    3.15    1.45
   4  -6 -13    1.48    1.43
  -4   6  13    3.66    2.14
  -4   6  13    5.51    1.94
   4  -6 -12   75.44    8.92
   4  -6 -12   75.90    8.66
   4  -6 -12   71.95    6.70
   4  -6 -12   69.97    7.87
   4  -6 -12   74.26    8.20
   4   6 -12   76.15    9.92
   4   6 -12   71.35    7.47
   4   6 -12   76.23    8.07
   4   6 -12   77.04    9.28
   4   6 -12   72.75    9.78
  -4   6  12   67.37   10.01
  -4   6  12   73.46   10.66
  -4  -6  12   71.93    7.45
   4  -6 -11  380.11   32.22
   4  -6 -11  356.20   35.03
   4  -6 -11  362.53   27.29
   4  -6 -11  358.60   30.14
   4  -6 -11  372.54   30.90
   4   6 -11  363.91   32.99
   4   6 -11  345.56   27.77
   4   6 -11  375.51   35.82
   4   6 -11  383.82   30.17
   4   6 -11  372.76   32.53
   4  -6 -11  369.19   31.53
  -4   6  11  366.00   36.52
  -4   6  11  343.03   36.85
  -4  -6  11  322.52   26.63
   4  -6 -10  171.08   18.80
   4  -6 -10  172.11   14.84
   4  -6 -10  145.81   13.17
   4  -6 -10  145.48   13.91
   4  -6 -10  156.89   15.20
   4   6 -10  146.24   16.40
   4   6 -10  136.56   12.39
   4   6 -10  141.28   15.56
   4   6 -10  144.29   13.35
   4   6 -10  142.63   14.35
   4  -6 -10  151.39   15.65
  -4   6  10  146.10   16.41
  -4   6  10  142.29   17.21
  -4  -6  10  143.01   13.22
   4  -6  -9  396.47   32.03
   4  -6  -9  435.74   38.66
   4  -6  -9  357.67   30.13
   4  -6  -9  370.56   29.47
   4  -6  -9  394.57   32.18
   4  -6  -9  386.37   32.54
   4   6  -9  354.06   34.39
   4   6  -9  340.38   27.33
   4   6  -9  376.98   34.69
   4   6  -9  367.82   29.32
   4   6  -9  361.76   29.86
  -4   6   9  383.63   35.29
  -4   6   9  352.14   35.57
  -4  -6   9  360.78   29.23
   4  -6  -8  228.83   21.14
   4  -6  -8  192.10   16.40
   4  -6  -8  193.07   16.33
   4  -6  -8  198.26   17.07
   4  -6  -8  204.30   17.77
   4  -6  -8  194.84   17.28
   4   6  -8  182.90   18.89
   4   6  -8  178.64   14.98
   4   6  -8  183.38   18.02
   4   6  -8  172.54   16.02
   4   6  -8  186.75   15.86
  -4   6   8  191.69   18.47
  -4   6   8  181.13   19.11
  -4  -6   8  173.78   15.06
   4  -6  -7   26.64    3.74
   4  -6  -7   22.65    3.91
   4  -6  -7   20.85    4.12
   4   6  -7   25.46    4.35
   4   6  -7   25.67    4.20
   4   6  -7   24.87    3.68
   4   6  -7   23.78    3.28
   4  -6  -7   26.01    4.05
   4  -6  -7   22.23    3.56
  -4   6   7   23.58    4.20
  -4   6   7   25.95    4.42
  -4  -6   7   18.79    3.14
   4  -6  -6   23.03    3.36
   4  -6  -6   23.15    3.43
   4  -6  -6   22.57    3.64
   4  -6  -6   24.35    3.75
   4  -6  -6   25.31    3.85
   4   6  -6   23.28    4.19
   4   6  -6   22.13    3.94
   4   6  -6   21.20    3.45
  -4   6   6   21.17    4.06
  -4   6   6   22.57    3.24
  -4  -6   6   20.00    2.97
   4  -6  -5  130.00   11.28
   4  -6  -5  131.42   10.83
   4  -6  -5  135.84   12.05
   4  -6  -5  142.15   12.28
   4  -6  -5  135.05   12.14
   4   6  -5  126.31   11.69
   4   6  -5  139.78   13.09
   4   6  -5  135.64   11.98
  -4   6   5  121.59   12.35
  -4   6   5  135.08   13.11
  -4  -6   5  110.98    8.88
   4  -6  -4   23.08    3.55
   4  -6  -4   28.50    3.83
   4  -6  -4   26.14    3.96
   4   6  -4   21.22    3.67
   4   6  -4   22.48    4.22
   4   6  -4   26.60    4.47
   4   6  -4   25.98    3.86
   4  -6  -4   24.55    3.20
   4  -6  -4   24.24    3.78
  -4   6   4   20.84    3.57
  -4   6   4   21.46    3.95
   4  -6  -3   81.22    7.11
   4  -6  -3   79.02    7.51
   4  -6  -3   77.75    7.43
   4  -6  -3   85.78    8.15
   4   6  -3   75.34    6.99
   4   6  -3   70.12    7.68
   4   6  -3   85.69    8.76
   4   6  -3   81.70    8.24
   4  -6  -3   77.79    8.36
  -4   6   3   74.01    7.62
  -4   6   3   81.41    8.29
   4  -6  -2   58.93    5.46
   4  -6  -2   57.84    5.73
   4  -6  -2   56.37    5.67
   4  -6  -2   58.09    6.25
   4  -6  -2   61.61    6.20
   4   6  -2   48.99    6.44
   4   6  -2   53.63    7.04
   4   6  -2   57.24    6.49
   4   6  -2   56.80    6.75
  -4   6   2   52.15    5.93
  -4   6   2   55.01    6.29
   4  -6  -1    1.18    1.13
   4  -6  -1    3.12    1.13
   4  -6  -1    0.43    1.13
   4  -6  -1    2.12    1.04
   4  -6  -1    4.58    1.25
   4   6  -1    1.76    1.39
   4   6  -1    4.19    1.46
   4   6  -1    0.71    1.39
   4   6  -1    2.80    1.46
  -4   6   1    2.98    1.35
   4  -6   0   67.51    5.99
   4  -6   0   55.52    5.18
   4  -6   0   65.96    5.75
   4  -6   0   69.73    5.88
   4  -6   0   67.71    6.31
   4  -6   0   70.85    6.93
   4   6   0   61.45    7.38
   4   6   0   63.37    7.47
   4   6   0   65.08    6.44
   4   6   0   65.89    6.26
   4  -6   1  278.24   20.47
   4  -6   1  274.57   19.54
   4  -6   1  276.80   19.04
   4  -6   1  277.99   19.48
   4  -6   1  288.89   22.09
   4  -6   1  275.04   19.56
   4   6   1  296.79   19.70
   4   6   1  251.05   22.38
   4   6   1  250.71   23.56
   4   6   1  288.13   22.78
   4   6   1  271.42   21.54
  -4  -6  -1  278.00   18.28
   4  -6   2  206.32   15.43
   4  -6   2  217.75   15.72
   4  -6   2  219.02   16.38
   4  -6   2  203.28   16.31
   4  -6   2  218.57   16.27
   4  -6   2  213.29   16.90
   4   6   2  211.26   14.90
   4   6   2  199.98   18.63
   4   6   2  204.67   18.87
   4   6   2  194.27   16.88
   4   6   2  203.66   19.03
  -4  -6  -2  199.97   14.07
   4  -6   3   76.18    6.72
   4  -6   3   85.28    7.43
   4  -6   3   88.50    8.38
   4  -6   3   80.27    7.03
   4   6   3   80.80    7.14
   4   6   3   79.76    9.07
   4   6   3   81.28    8.88
   4   6   3   80.29    9.23
   4  -6   3   82.70    7.25
  -4  -6  -3   77.42    6.73
   4  -6   4    2.24    1.46
   4  -6   4    4.02    1.14
   4  -6   4    4.04    1.23
   4  -6   4    1.48    1.18
   4  -6   4    3.19    1.21
   4   6   4    2.78    0.86
   4   6   4    2.18    1.64
   4   6   4    2.97    1.84
   4   6   4    4.01    1.27
  -4   6  -4    6.20    2.58
  -4  -6  -4    4.05    1.14
   4  -6   5    0.58    0.69
   4  -6   5    0.46    0.66
   4  -6   5    0.84    0.77
   4  -6   5    0.01    0.67
   4  -6   5    0.52    0.72
   4   6   5    0.09    0.71
   4   6   5    2.47    0.95
   4   6   5    0.28    1.04
   4   6   5    0.24    1.03
  -4   6  -5    0.12    1.50
  -4  -6  -5    0.07    0.45
   4  -6   6   12.52    1.70
   4  -6   6   14.06    2.32
   4  -6   6   14.72    2.57
   4  -6   6   14.14    2.23
   4   6   6   12.52    1.93
   4   6   6   12.29    3.09
   4   6   6   12.23    3.17
   4   6   6   11.61    3.45
   4  -6   6   14.92    2.48
  -4   6  -6   15.16    5.36
  -4  -6  -6   12.89    2.42
   4  -6   7  183.38   13.28
   4  -6   7  195.78   14.74
   4  -6   7  195.62   15.18
   4  -6   7  184.02   13.88
   4  -6   7  182.62   14.41
   4   6   7  179.40   14.98
   4   6   7  146.28   15.48
   4   6   7  165.78   16.56
   4   6   7  180.51   16.86
  -4   6  -7  185.93   23.39
  -4  -6  -7  176.30   14.47
   4  -6   8   17.30    2.55
   4  -6   8   17.81    2.21
   4  -6   8   16.60    2.85
   4  -6   8   19.11    3.10
   4   6   8   15.25    2.39
   4   6   8   16.15    3.54
   4   6   8   15.96    3.98
   4   6   8   19.28    4.35
   4  -6   8   18.61    2.56
  -4   6  -8   15.92    4.88
  -4  -6  -8   17.09    2.81
   4  -6   9    6.02    1.39
   4  -6   9    4.22    1.37
   4  -6   9    5.47    1.67
   4  -6   9    5.74    1.69
   4   6   9    5.66    1.78
   4   6   9    3.77    2.39
   4   6   9    3.59    2.20
   4   6   9    1.49    1.74
   4   6   9    5.35    2.49
  -4   6  -9    2.22    2.09
  -4   6  -9    6.93    2.16
  -4  -6  -9    5.27    1.21
   4  -6  10   27.18    3.55
   4  -6  10   26.02    2.95
   4  -6  10   22.91    3.55
   4  -6  10   25.33    3.57
   4   6  10   22.58    3.93
   4   6  10   19.27    5.02
   4   6  10   17.16    4.38
   4   6  10   19.16    3.83
   4   6  10   21.19    4.13
  -4   6 -10   18.31    4.03
  -4   6 -10   25.63    5.45
  -4  -6 -10   21.15    2.76
   4  -6  11    2.11    0.69
   4  -6  11   -0.13    0.86
   4   6  11    0.30    0.60
   4   6  11    0.66    1.04
   4   6  11   -0.05    1.23
   4   6  11    0.03    0.85
   4   6  11   -0.42    1.24
   4  -6  11   -0.24    0.74
   4  -6  11   -0.04    0.69
  -4   6 -11    0.11    0.62
  -4   6 -11    0.12    1.08
  -4  -6 -11    0.02    0.79
   4  -6  12   12.09    2.38
   4  -6  12   14.06    2.16
   4  -6  12   14.03    3.13
   4   6  12   13.48    2.79
   4   6  12   11.57    3.13
   4   6  12    9.32    3.64
   4   6  12    7.56    2.77
   4   6  12   10.12    4.09
  -4   6 -12    9.25    3.20
  -4   6 -12   13.68    3.48
  -4  -6 -12   11.31    2.67
   4  -6  13  102.27    8.90
   4  -6  13  102.10    8.35
   4   6  13   90.26    9.03
   4   6  13   82.60   10.54
   4   6  13   85.65   12.20
   4   6  13   74.23   12.68
  -4   6 -13   91.89   11.60
   4  -6  14   16.67    2.55
   4   6  14   16.18    3.21
   4   6  14    9.43    3.12
   4   6  14   13.67    3.31
   4   6  14   12.29    4.32
  -4   6 -14   10.73    3.65
   4   6  15   35.02    4.82
   4   6  15   30.02    6.78
   4   6  15   29.33    5.60
   4   6  15   30.30    6.80
   4  -6  15   37.52    4.34
  -4   6 -15   35.52    5.84
   4  -6  16   10.86    2.06
   4   6  16   10.02    2.40
   4   6  16    7.27    3.90
   4   6  16    8.01    3.41
   4   6  16    6.70    2.87
  -4   6 -16   10.30    2.91
   4  -6  17   21.63    3.12
   4   6  17   24.51    3.63
   4   6  17   17.04    4.67
   4   6  17   17.16    3.92
   4   6  17   19.89    4.90
  -4   6 -17   20.72    3.91
   4  -6  18    2.69    1.69
   4   6  18    6.36    1.67
   4   6  18    3.39    2.19
   4   6  18    4.90    2.48
  -4   6 -18    5.32    1.82
   4  -6  19   20.64    2.89
   4   6  19   17.28    3.94
   4   6  19   19.10    4.19
  -4   6 -19   20.30    3.41
   4  -6  20    0.05    0.59
   4  -6  20    0.54    0.64
   4   6  20   -0.06    0.84
   4   6  20    0.88    0.90
   4  -6  21   11.20    1.41
   4  -6  21    0.17    1.41
   4   6  21    0.05    1.76
   4   6  21   17.82    2.17
   4   7 -21    4.45    1.17
   4   7 -21    3.88    1.43
  -4   7  21    4.55    1.77
  -4   7  21    5.14    1.80
   4   7 -20    6.89    1.62
   4   7 -20    6.40    1.80
  -4   7  20    6.03    2.24
  -4   7  20    7.74    2.20
   4  -7 -19    0.09    1.46
   4   7 -19    3.38    1.04
   4   7 -19    1.09    1.11
  -4   7  19    5.30    1.47
  -4   7  19    0.29    1.42
  -4  -7  19    0.10    0.89
   4  -7 -18    0.30    1.83
   4   7 -18    6.52    1.61
   4   7 -18    1.63    1.03
   4   7 -18    9.51    1.72
  -4   7  18    6.15    2.16
  -4  -7  18    5.26    1.38
  -4   7  18    6.66    2.44
   4  -7 -17   -0.50    2.27
   4   7 -17    8.77    2.29
   4   7 -17   10.02    2.05
   4   7 -17    8.84    2.28
   4   7 -17    9.56    2.42
  -4   7  17    9.77    3.11
  -4   7  17    9.71    3.03
  -4  -7  17    8.78    1.76
   4   7 -16   22.85    4.21
   4   7 -16   24.42    3.59
   4   7 -16   21.86    4.27
   4   7 -16   23.57    4.01
  -4   7  16   24.71    5.20
  -4   7  16   21.36    5.30
  -4  -7  16   21.89    3.22
   4  -7 -15    4.57    2.06
   4  -7 -15    1.72    1.32
   4   7 -15    6.70    2.24
   4   7 -15    6.32    1.81
   4   7 -15    5.09    2.05
   4   7 -15    8.55    2.07
  -4   7  15    5.04    2.67
  -4   7  15    5.52    2.62
  -4  -7  15    5.89    1.56
   4  -7 -14    0.10    1.16
   4   7 -14    2.59    1.17
   4   7 -14   -0.28    0.98
   4   7 -14    0.02    1.09
   4   7 -14    0.25    1.07
   4  -7 -14    0.50    0.75
  -4   7  14    0.22    1.43
  -4   7  14    0.70    1.42
  -4  -7  14    1.96    0.78
   4  -7 -13    0.73    0.83
   4  -7 -13    0.21    0.55
   4   7 -13    0.03    0.83
   4   7 -13    0.12    0.57
   4   7 -13   -0.02    0.65
   4   7 -13    0.20    0.72
  -4   7  13    0.12    0.99
  -4   7  13    0.42    1.05
  -4  -7  13   -0.11    0.55
   4  -7 -12    5.90    2.00
   4  -7 -12    2.98    1.58
   4   7 -12    3.39    2.22
   4   7 -12    4.76    1.58
   4   7 -12    3.96    2.24
   4   7 -12    6.05    1.79
   4   7 -12    3.19    1.98
   4  -7 -12    4.49    1.46
  -4   7  12    4.78    2.58
  -4   7  12    4.40    2.49
   4  -7 -11   -0.01    0.82
   4  -7 -11    0.09    0.67
   4  -7 -11    0.31    0.71
   4   7 -11    0.89    1.05
   4   7 -11   -0.18    0.67
   4   7 -11    0.37    0.69
   4   7 -11    0.41    0.83
   4   7 -11    0.27    0.77
  -4   7  11    0.50    1.08
  -4   7  11    0.75    1.12
   4  -7 -10   10.14    2.72
   4  -7 -10    9.73    2.56
   4  -7 -10    7.08    2.47
   4  -7 -10   10.44    2.38
   4  -7 -10   12.42    2.97
   4   7 -10   13.06    3.41
   4   7 -10   10.27    2.33
   4   7 -10   11.63    3.16
   4   7 -10   12.64    2.46
   4   7 -10   11.30    2.53
  -4   7  10   12.00    3.56
  -4   7  10    7.11    3.47
  -4  -7  10    9.14    1.82
   4  -7  -9   73.70    7.89
   4  -7  -9   68.75    8.00
   4  -7  -9   70.74    7.39
   4  -7  -9   70.14    8.65
   4   7  -9   68.41    9.68
   4   7  -9   66.12    6.95
   4   7  -9   84.38    9.65
   4   7  -9   71.91    7.65
   4   7  -9   68.45    7.49
   4  -7  -9   68.24    8.28
  -4   7   9   76.92    9.88
  -4   7   9   67.75    9.67
  -4  -7   9   67.51    7.42
   4  -7  -8   64.70    7.43
   4  -7  -8   66.09    7.28
   4  -7  -8   65.30    7.03
   4  -7  -8   62.42    7.91
   4   7  -8   64.35    8.79
   4   7  -8   58.88    7.07
   4   7  -8   53.00    7.87
   4   7  -8   57.64    6.05
   4   7  -8   65.30    6.63
   4  -7  -8   66.83    7.16
  -4   7   8   60.36    8.10
  -4   7   8   62.80    8.86
  -4  -7   8   58.48    6.57
   4  -7  -7    5.31    2.15
   4  -7  -7    8.66    2.17
   4  -7  -7    6.84    1.99
   4  -7  -7    7.55    2.43
   4   7  -7    7.13    2.63
   4   7  -7    8.32    2.43
   4   7  -7    7.40    2.12
   4  -7  -7    6.08    2.09
  -4   7   7    4.48    1.94
  -4   7   7    8.45    2.67
  -4  -7   7    6.23    1.79
   4  -7  -6   57.25    6.45
   4  -7  -6   58.37    7.45
   4  -7  -6   62.88    6.75
   4  -7  -6   63.10    6.60
   4  -7  -6   70.13    6.86
   4   7  -6   56.71    8.26
   4   7  -6   56.04    6.31
   4   7  -6   59.61    7.29
  -4   7   6   60.42    7.43
  -4   7   6   65.13    7.91
  -4  -7   6   53.37    5.78
   4  -7  -5    2.15    1.08
   4  -7  -5    0.17    1.07
   4  -7  -5    2.66    0.96
   4  -7  -5    0.37    1.03
   4  -7  -5   -0.06    1.31
   4   7  -5    0.64    1.35
   4   7  -5    4.17    1.36
   4   7  -5    0.46    1.18
  -4   7   5    0.33    1.22
  -4   7   5    3.02    1.28
  -4  -7   5    0.70    0.95
   4  -7  -4   40.10    4.85
   4  -7  -4   39.72    4.52
   4  -7  -4   34.34    4.58
   4  -7  -4   40.25    3.94
   4  -7  -4   36.89    5.34
   4   7  -4   31.24    5.02
   4   7  -4   34.69    5.83
   4   7  -4   38.03    5.65
   4   7  -4   35.23    5.10
  -4   7   4   32.34    4.70
  -4   7   4   38.71    5.39
   4  -7  -3   14.04    2.67
   4  -7  -3   14.70    2.70
   4  -7  -3   16.54    2.89
   4  -7  -3   13.99    3.36
   4  -7  -3   15.60    3.04
   4   7  -3   11.13    3.01
   4   7  -3   19.58    3.53
   4   7  -3   16.69    3.45
   4   7  -3   15.16    3.22
  -4   7   3   14.07    3.08
  -4   7   3   13.18    2.97
   4  -7  -2  124.52   11.25
   4  -7  -2  126.52   10.77
   4  -7  -2  138.47   10.91
   4  -7  -2  134.15   11.43
   4   7  -2  106.03   11.48
   4   7  -2  111.39   12.86
   4   7  -2  123.13   12.41
   4   7  -2  124.46   12.38
   4  -7  -2  124.13   11.91
  -4   7   2  121.34   11.25
  -4   7   2  125.15   11.98
   4  -7  -1   21.44    3.12
   4  -7  -1   19.58    2.92
   4  -7  -1   20.82    3.53
   4  -7  -1   24.56    3.57
   4   7  -1   18.53    3.64
   4   7  -1   19.21    4.08
   4   7  -1   20.52    3.89
   4   7  -1   19.09    3.71
   4  -7  -1   18.94    2.86
  -4   7   1   17.15    3.52
  -4   7   1   22.10    3.53
   4  -7   0  104.10    9.42
   4  -7   0  104.80    8.81
   4  -7   0  106.37    9.69
   4  -7   0  104.54    8.58
   4  -7   0  106.13    9.98
   4  -7   0   98.81    9.24
   4   7   0   86.20    9.78
   4   7   0   96.27   10.53
   4   7   0  100.13   11.27
   4   7   0   99.93   10.90
  -4   7   0   93.75    8.95
  -4   7   0  103.06   10.16
   4  -7   1  160.34   13.73
   4  -7   1  174.57   13.51
   4  -7   1  172.96   13.80
   4  -7   1  175.95   13.29
   4  -7   1  164.41   13.76
   4   7   1  152.14   15.53
   4   7   1  157.01   16.53
   4   7   1  166.69   15.87
   4   7   1  167.36   16.11
  -4   7  -1  177.34   23.11
   4  -7   2    6.66    1.73
   4  -7   2    8.20    1.38
   4  -7   2    6.85    1.44
   4  -7   2    6.21    1.64
   4  -7   2    6.68    1.86
   4   7   2    5.34    1.56
   4   7   2    6.66    2.40
   4   7   2    6.40    2.12
   4   7   2    5.51    2.32
   4   7   2    5.81    1.75
  -4   7  -2    6.55    3.75
  -4  -7  -2    6.45    1.50
   4  -7   3  100.81    9.86
   4  -7   3   94.37    8.23
   4  -7   3   95.54    8.27
   4  -7   3   91.26    8.54
   4   7   3   93.85    7.82
   4   7   3   82.92   10.41
   4   7   3   82.54    9.63
   4   7   3   92.12   10.63
   4  -7   3   94.59    7.94
  -4   7  -3   91.08   12.96
  -4  -7  -3   86.13    7.77
   4  -7   4   27.04    3.47
   4  -7   4   29.86    3.39
   4  -7   4   27.64    2.75
   4  -7   4   26.29    3.63
   4  -7   4   27.46    3.90
   4   7   4   27.87    2.85
   4   7   4   18.46    4.61
   4   7   4   23.83    3.55
   4   7   4   26.84    4.78
  -4   7  -4   32.03    8.11
  -4  -7  -4   22.15    2.58
   4  -7   5   27.01    3.46
   4  -7   5   31.62    3.83
   4  -7   5   26.90    4.13
   4  -7   5   28.26    3.63
   4  -7   5   32.92    4.34
   4   7   5   28.97    3.80
   4   7   5   20.70    4.64
   4   7   5   29.89    5.25
   4   7   5   31.08    5.22
  -4   7  -5   26.22    7.99
  -4  -7  -5   25.73    3.59
   4  -7   6   17.42    2.97
   4  -7   6   14.31    1.94
   4  -7   6   14.56    2.62
   4  -7   6   17.65    2.82
   4   7   6   15.45    2.81
   4   7   6   13.69    3.36
   4   7   6   15.67    3.63
   4   7   6   14.50    3.93
   4  -7   6   15.43    2.53
  -4   7  -6   13.98    4.18
  -4  -7  -6   12.82    2.64
   4  -7   7   53.20    5.02
   4  -7   7   46.72    5.25
   4  -7   7   50.18    4.96
   4  -7   7   50.90    5.32
   4  -7   7   47.26    5.41
   4   7   7   48.58    5.90
   4   7   7   36.99    6.44
   4   7   7   46.96    7.14
   4   7   7   53.89    7.53
  -4   7  -7   52.16    9.32
  -4  -7  -7   38.05    5.07
   4  -7   8   70.59    6.14
   4  -7   8   69.40    6.61
   4  -7   8   64.69    6.84
   4  -7   8   68.92    7.27
   4   7   8   65.72    7.16
   4   7   8   47.13    7.84
   4   7   8   56.26    8.31
   4   7   8   67.67    9.82
  -4   7  -8   59.20    7.97
  -4   7  -8   63.61   11.33
  -4  -7  -8   54.62    6.44
   4  -7   9    3.77    0.75
   4  -7   9   -0.10    0.58
   4  -7   9   -0.39    0.97
   4  -7   9    0.47    0.95
   4   7   9   -0.36    0.97
   4   7   9    0.78    1.22
   4   7   9    0.32    1.18
   4   7   9    0.92    1.38
  -4   7  -9    0.07    1.06
  -4   7  -9    0.04    1.43
  -4  -7  -9    0.59    0.86
   4  -7  10   38.34    4.32
   4  -7  10   29.59    3.51
   4   7  10   29.57    4.62
   4   7  10   26.30    4.39
   4   7  10   27.56    6.00
  -4   7 -10   31.99    5.90
   4  -7  11   25.56    3.46
   4  -7  11   23.54    2.83
   4   7  11   21.75    3.88
   4   7  11   16.33    3.52
   4   7  11   20.97    5.31
  -4   7 -11   22.66    4.79
   4  -7  12   19.50    2.68
   4   7  12   19.66    3.72
   4   7  12   16.27    4.44
   4   7  12   16.17    3.66
   4  -7  12   22.61    3.30
  -4   7 -12   21.83    4.50
   4   7  13   12.71    2.89
   4   7  13   10.82    3.87
   4   7  13   11.90    3.87
   4  -7  13   13.60    2.60
  -4   7 -13   14.98    3.70
   4  -7  14    7.61    2.07
   4   7  14   10.06    2.48
   4   7  14    5.60    3.00
   4   7  14    8.17    3.02
  -4   7 -14    8.91    2.86
   4   7  15    0.43    1.07
   4   7  15    0.00    1.46
   4   7  15    0.66    1.39
   4  -7  15    1.09    0.95
  -4   7 -15    2.89    1.29
   4  -7  16    8.68    1.87
   4   7  16    7.76    1.72
   4   7  16    6.32    3.07
   4   7  16    9.62    2.99
  -4   7 -16    9.19    2.47
   4  -7  17    5.59    1.75
   4   7  17    6.90    2.81
   4   7  17    8.69    2.71
  -4   7 -17   11.01    2.39
   4  -7  18    0.18    0.50
   4   7  18    0.07    0.83
   4   7  18   -0.02    0.83
  -4   7 -18    0.25    0.67
   4  -7  19    6.74    1.30
   4  -7  19   -0.12    1.35
   4   7  19    5.52    1.97
   4   7  19    8.74    2.16
  -4   7 -19    8.56    1.68
   4  -7  20    0.30    0.65
   4  -7  20    1.76    0.66
   4   7  20   -0.03    1.18
   4   7  20    0.23    1.00
  -4   8  20    0.43    0.83
  -4   8  20    0.25    1.03
   4   8 -19    4.48    1.12
   4   8 -19   -0.02    0.93
  -4   8  19    0.05    1.28
  -4   8  19    2.83    1.33
   4   8 -18    0.39    0.70
   4   8 -18    0.07    0.71
   4  -8 -18    2.09    0.84
  -4   8  18    0.53    1.00
  -4   8  18    0.30    1.05
  -4  -8  18    0.05    0.58
   4  -8 -17   -0.22    1.13
   4   8 -17   -0.19    0.79
   4   8 -17    0.16    0.70
   4   8 -17    1.97    0.74
  -4   8  17    0.32    1.07
  -4   8  17    0.33    1.08
  -4  -8  17    0.46    0.59
   4  -8 -16    2.83    2.32
   4   8 -16   14.28    2.29
   4   8 -16    0.06    1.75
   4   8 -16   11.83    2.36
   4   8 -16    2.35    1.84
  -4   8  16   13.58    2.85
  -4   8  16    9.58    2.90
  -4  -8  16   13.40    1.76
   4  -8 -15    2.01    1.05
   4   8 -15    0.92    1.37
   4   8 -15    3.22    1.42
   4   8 -15    2.98    1.50
   4   8 -15    2.49    1.12
   4  -8 -15    0.36    1.32
  -4   8  15    4.82    1.79
  -4   8  15    0.33    1.66
  -4  -8  15    0.28    0.97
   4  -8 -14    8.59    2.78
   4   8 -14   20.41    2.77
   4   8 -14    0.51    2.02
   4   8 -14   16.63    2.84
   4   8 -14    0.17    2.04
  -4   8  14   14.63    3.29
  -4   8  14   14.92    3.30
  -4  -8  14   14.46    2.11
   4  -8 -13    3.14    1.48
   4  -8 -13    3.08    1.10
   4   8 -13    2.72    1.51
   4   8 -13    0.02    1.15
   4   8 -13    2.32    1.16
   4   8 -13   -0.20    1.22
  -4   8  13    3.25    1.77
  -4   8  13    0.86    1.33
  -4  -8  13    2.96    1.04
   4  -8 -12   20.18    3.61
   4  -8 -12   20.43    2.85
   4   8 -12   23.58    3.77
   4   8 -12    5.35    2.67
   4   8 -12   22.29    4.10
   4   8 -12   22.32    3.23
   4   8 -12    2.53    2.77
  -4   8  12   20.86    4.33
  -4   8  12   18.90    4.26
   4  -8 -11    1.06    1.64
   4  -8 -11    3.89    1.38
   4   8 -11    2.90    2.01
   4   8 -11    2.58    1.31
   4   8 -11    4.90    1.93
   4   8 -11    1.98    1.59
   4   8 -11    2.55    1.40
  -4   8  11    1.37    1.95
  -4   8  11    2.14    1.92
   4  -8 -10  120.72   12.16
   4  -8 -10  122.52   11.17
   4   8 -10  114.88   13.67
   4   8 -10   91.02    9.70
   4   8 -10  115.92   12.88
   4   8 -10  113.95   11.30
   4  -8 -10  113.34   10.15
  -4   8  10  112.36   13.68
  -4   8  10  106.11   13.82
   4  -8  -9    1.52    1.08
   4  -8  -9    3.31    1.10
   4  -8  -9    0.33    0.93
   4   8  -9    1.15    1.42
   4   8  -9    0.01    0.97
   4   8  -9    2.79    1.23
   4   8  -9   -0.16    0.73
  -4   8   9   -0.23    1.27
  -4   8   9    0.81    1.45
   4  -8  -8   85.32    9.23
   4  -8  -8   89.65    9.90
   4  -8  -8   88.42    8.36
   4   8  -8   88.10   11.07
   4   8  -8   78.76    9.90
   4   8  -8   82.72    9.08
  -4   8   8   88.23   10.70
  -4   8   8   81.55   10.85
   4  -8  -7   23.41    4.04
   4  -8  -7   25.88    3.28
   4  -8  -7   23.89    3.70
   4   8  -7   27.64    5.16
   4   8  -7   24.41    3.64
   4   8  -7   25.58    4.19
  -4   8   7   24.43    4.73
  -4   8   7   27.65    4.76
   4  -8  -6  147.86   13.25
   4  -8  -6  158.67   14.21
   4  -8  -6  140.86   15.17
   4   8  -6  141.84   14.94
   4   8  -6  144.73   16.00
   4   8  -6  138.46   13.73
   4  -8  -6  150.54   12.62
  -4   8   6  138.86   13.99
  -4   8   6  139.52   15.13
  -4  -8   6  120.33   11.66
   4  -8  -5    2.94    1.79
   4  -8  -5    4.65    1.49
   4  -8  -5    3.25    2.03
   4   8  -5    5.29    1.86
   4   8  -5    3.60    2.12
   4   8  -5    3.34    1.95
   4  -8  -5    3.07    1.58
  -4   8   5    3.69    1.96
  -4   8   5    3.76    1.98
  -4  -8   5    1.98    1.46
   4  -8  -4  174.53   14.76
   4  -8  -4  191.21   16.47
   4  -8  -4  163.34   15.68
   4  -8  -4  191.96   15.43
   4   8  -4  174.66   16.71
   4   8  -4  170.09   16.91
   4   8  -4  172.40   16.46
  -4   8   4  164.71   15.64
  -4   8   4  176.71   17.34
  -4  -8   4  133.56   12.92
   4  -8  -3    2.99    1.01
   4  -8  -3    3.01    1.60
   4  -8  -3    2.02    1.21
   4  -8  -3    5.03    1.64
   4   8  -3    1.49    1.12
   4   8  -3    2.59    1.98
   4   8  -3    2.90    1.86
   4   8  -3    4.53    1.70
  -4   8   3    2.75    1.62
  -4   8   3    2.88    1.73
  -4   8   3    4.67    2.01
   4  -8  -2  145.98   12.37
   4  -8  -2  149.42   11.57
   4  -8  -2  155.35   11.93
   4  -8  -2  137.97   11.70
   4   8  -2  115.48   13.20
   4   8  -2  151.95   15.47
   4   8  -2  136.22   15.52
   4   8  -2  162.18   15.53
  -4   8   2  141.01   13.33
  -4   8   2  157.64   14.81
  -4   8   2  163.56   21.26
   4  -8  -1   28.15    3.70
   4  -8  -1   26.69    3.47
   4  -8  -1   23.19    4.03
   4  -8  -1   24.98    3.25
   4  -8  -1   17.25    3.44
   4   8  -1   17.92    4.23
   4   8  -1   23.31    4.51
   4   8  -1   23.16    3.37
   4   8  -1   25.50    4.67
  -4   8   1   23.03    3.90
  -4   8   1   25.53    4.15
  -4   8   1   29.89    7.14
   4  -8   0  213.66   16.18
   4  -8   0  212.89   18.30
   4  -8   0  242.98   17.23
   4  -8   0  208.23   18.55
   4   8   0  176.70   17.99
   4   8   0  203.56   20.80
   4   8   0  211.22   20.13
   4   8   0  214.28   19.09
   4  -8   0  212.55   17.86
  -4   8   0  202.79   17.46
  -4   8   0  237.57   21.10
  -4   8   0  228.27   30.85
   4  -8   1    4.51    1.71
   4  -8   1    4.09    1.61
   4  -8   1    4.75    1.55
   4  -8   1    5.07    1.52
   4   8   1    2.93    1.46
   4   8   1    3.65    2.08
   4   8   1    5.98    1.91
   4   8   1    3.68    2.24
  -4   8  -1    3.45    1.55
  -4   8  -1    3.48    3.64
   4  -8   2   48.17    5.36
   4  -8   2   47.72    5.47
   4  -8   2   47.52    5.70
   4  -8   2   53.66    5.69
   4  -8   2   49.41    5.86
   4   8   2   36.29    6.09
   4   8   2   47.82    7.13
   4   8   2   45.51    6.24
   4   8   2   47.89    7.04
  -4   8  -2   45.94   11.73
   4  -8   3    4.41    1.33
   4  -8   3    5.13    1.42
   4  -8   3    2.61    1.29
   4  -8   3    3.76    1.57
   4   8   3    1.88    0.92
   4   8   3    2.50    1.95
   4   8   3    5.22    1.93
   4   8   3    2.57    1.24
   4   8   3    2.08    1.46
   4  -8   3    4.19    1.66
  -4   8  -3    6.13    2.38
   4  -8   4   71.87    7.87
   4  -8   4   68.48    6.68
   4  -8   4   67.80    6.69
   4  -8   4   59.12    7.05
   4   8   4   65.34    6.63
   4   8   4   51.56    7.98
   4   8   4   63.98    7.87
   4   8   4   66.32    7.40
   4  -8   4   68.75    6.92
  -4   8  -4   74.52   13.66
   4  -8   5   21.16    2.98
   4  -8   5   19.87    2.81
   4  -8   5   17.98    2.50
   4  -8   5   16.59    3.48
   4   8   5   18.72    3.02
   4   8   5   15.59    4.32
   4   8   5   16.44    3.83
   4   8   5   21.91    4.35
   4  -8   5   17.60    3.36
  -4   8  -5   14.45    4.15
  -4   8  -5   15.64    5.83
  -4  -8  -5   14.81    3.13
   4  -8   6   49.86    4.85
   4   8   6   42.83    5.41
   4   8   6   44.48    7.00
   4   8   6   45.58    7.17
   4  -8   6   47.53    5.09
  -4   8  -6   45.77    9.70
   4  -8   7   21.07    3.11
   4  -8   7   22.94    3.00
   4   8   7   18.85    3.52
   4   8   7   18.23    4.69
   4   8   7   23.25    3.62
  -4   8  -7   22.17    6.09
   4  -8   8    0.41    0.92
   4  -8   8    2.20    0.79
   4   8   8    0.29    1.06
   4   8   8    0.29    1.02
   4   8   8    0.37    1.40
  -4   8  -8    0.81    1.80
   4  -8   9   11.26    1.87
   4   8   9    6.19    2.34
   4   8   9    7.84    3.26
   4   8   9    8.68    3.09
   4  -8   9    8.03    1.94
  -4   8  -9   10.45    3.37
   4  -8  10    6.80    2.08
   4  -8  10    8.58    1.65
   4   8  10    6.31    2.39
   4   8  10    6.54    3.15
   4   8  10    8.83    2.86
  -4   8 -10    7.39    3.15
   4  -8  11    5.30    1.49
   4   8  11    7.98    2.27
   4   8  11    6.03    2.99
   4   8  11    6.69    2.73
   4  -8  11    6.94    1.89
  -4   8 -11    8.62    2.71
   4  -8  12    4.71    1.58
   4   8  12    1.57    2.40
   4   8  12    2.01    2.16
  -4   8 -12    6.55    2.08
   4  -8  13    0.18    0.87
   4   8  13    0.05    1.35
   4   8  13    3.39    1.25
  -4   8 -13   -0.52    1.24
   4  -8  14    5.37    1.49
   4   8  14    3.06    2.35
   4   8  14    2.85    2.27
  -4   8 -14    5.06    1.55
   4  -8  15    5.12    1.36
   4   8  15    3.29    2.18
   4   8  15    4.37    2.18
  -4   8 -15    4.00    1.87
   4  -8  16   10.54    1.97
   4   8  16   13.26    3.36
   4   8  16   14.74    3.34
  -4   8 -16   16.60    3.18
   4   8  17   14.37    3.60
   4   8  17   13.61    3.11
  -4   8 -17   15.81    2.80
   4  -8  18    9.03    1.46
   4  -8  18    1.81    1.45
   4   8  18   10.20    2.48
   4   8  18   12.06    2.31
  -4   8 -18   14.21    2.02
   4   8  19   -0.04    0.67
   4   8  19    0.28    0.59
  -4   9  18    0.02    0.60
  -4   9  18   -0.06    0.59
   4   9 -17    0.11    0.81
  -4   9  17    0.13    1.23
  -4   9  17    3.42    1.33
  -4  -9  17    1.72    0.73
   4  -9 -16    0.00    0.68
   4   9 -16    0.13    0.49
   4   9 -16    0.17    0.45
   4   9 -16   -0.02    0.56
   4   9 -16   -0.20    0.61
  -4   9  16    0.24    0.70
  -4   9  16   -0.85    0.77
  -4  -9  16   -0.15    0.40
   4  -9 -15   -0.84    1.93
   4  -9 -15    0.08    1.36
   4   9 -15    9.07    2.15
   4   9 -15   13.31    1.89
   4   9 -15    0.32    1.58
   4   9 -15    1.98    1.61
  -4   9  15   12.52    2.29
  -4   9  15   15.15    2.54
  -4  -9  15   13.68    1.57
   4  -9 -14   -0.03    1.04
   4  -9 -14    0.29    0.78
   4   9 -14   -0.20    1.01
   4   9 -14    2.79    0.91
   4   9 -14    2.21    1.10
  -4   9  14    0.17    1.29
  -4   9  14   -0.42    1.37
  -4  -9  14    2.04    0.78
   4  -9 -13   -0.39    0.85
   4  -9 -13    0.16    0.68
   4   9 -13    0.64    0.88
   4   9 -13    0.50    0.73
   4   9 -13    0.08    1.01
  -4   9  13    0.84    1.02
  -4   9  13    0.25    1.20
  -4  -9  13    0.81    0.60
   4  -9 -12    8.70    1.79
   4  -9 -12    7.46    2.08
   4   9 -12    5.53    2.12
   4   9 -12   -0.03    1.70
   4   9 -12    6.64    2.39
  -4   9  12    8.54    2.49
  -4   9  12    6.51    2.65
  -4  -9  12    7.30    1.62
   4  -9 -11    0.89    0.95
   4  -9 -11   -0.17    0.83
   4   9 -11    0.43    1.08
   4   9 -11   -0.81    0.96
   4   9 -11    0.41    1.00
   4   9 -11    0.58    0.89
  -4   9  11    3.11    1.10
  -4   9  11   -0.16    1.13
   4  -9 -10    1.38    1.17
   4  -9 -10    0.69    1.23
   4   9 -10    2.38    0.96
   4   9 -10    1.33    1.46
   4   9 -10    0.17    1.10
   4   9 -10    0.65    1.19
  -4   9  10    2.97    1.49
  -4   9  10    1.61    1.59
   4  -9  -9   12.32    2.88
   4  -9  -9   12.04    2.86
   4   9  -9   12.26    3.54
   4   9  -9   10.73    2.98
   4   9  -9   12.90    3.06
  -4   9   9   14.37    3.54
  -4   9   9   13.97    3.73
   4  -9  -8   16.06    3.20
   4  -9  -8   15.76    3.05
   4   9  -8   12.96    3.76
   4   9  -8   14.24    3.03
   4   9  -8   14.69    3.55
  -4   9   8   15.83    3.86
  -4   9   8   12.68    4.08
   4  -9  -7    9.96    2.34
   4  -9  -7    8.45    2.43
   4   9  -7    7.63    2.93
   4   9  -7    9.55    2.61
   4   9  -7    8.36    2.81
  -4   9   7   11.69    2.84
  -4   9   7    8.47    3.02
  -4   9   7    0.38    3.85
   4  -9  -6    0.84    1.33
   4   9  -6    0.43    1.61
   4   9  -6    3.22    1.57
   4   9  -6    4.40    1.35
   4  -9  -6    0.46    1.20
  -4   9   6    2.65    1.48
  -4   9   6   -0.24    1.61
  -4   9   6    0.35    2.31
   4  -9  -5    1.10    1.37
   4  -9  -5    3.48    1.53
   4   9  -5    1.50    1.90
   4   9  -5    4.86    1.74
   4   9  -5    1.32    1.49
  -4   9   5    3.46    1.60
  -4   9   5    1.27    1.80
  -4   9   5    1.79    2.74
   4  -9  -4    3.49    1.84
   4  -9  -4    5.63    2.01
   4   9  -4    6.08    2.20
   4   9  -4    4.18    2.52
   4   9  -4    5.24    2.34
  -4   9   4    5.98    2.25
  -4   9   4   10.17    3.66
  -4   9   4    6.12    2.18
   4  -9  -3   33.59    4.64
   4   9  -3   32.26    6.51
   4   9  -3   32.17    5.38
   4   9  -3   32.19    5.52
   4  -9  -3   29.92    4.16
  -4   9   3   30.87    4.70
  -4   9   3   33.25    5.48
  -4   9   3   38.19    8.04
   4  -9  -2    5.69    1.98
   4  -9  -2    8.81    2.00
   4   9  -2    7.56    2.01
   4   9  -2    5.25    2.93
   4   9  -2    6.38    2.65
  -4   9   2    7.47    2.19
  -4   9   2    6.81    2.59
  -4   9   2   13.85    4.08
   4  -9  -1   13.66    2.61
   4  -9  -1   15.18    2.57
   4   9  -1   11.41    3.70
   4   9  -1   12.61    3.31
   4   9  -1   13.14    3.64
  -4   9   1   13.28    2.80
  -4   9   1   11.90    3.15
  -4   9   1   15.92    5.24
   4  -9   0   67.80    6.13
   4  -9   0   67.87    7.15
   4   9   0   65.61    8.68
   4   9   0   68.14    8.27
   4   9   0   68.95    9.39
  -4   9   0   61.38    7.18
  -4   9   0   66.74   12.69
   4  -9   1   90.91    8.53
   4  -9   1   97.74    9.08
   4   9   1   83.83   10.15
   4   9   1   85.53   10.53
   4   9   1   92.59   11.45
  -4   9  -1   82.67    9.02
  -4   9  -1  101.17   15.78
   4  -9   2   80.22    7.83
   4  -9   2   80.31    7.91
   4   9   2   79.71   10.35
   4   9   2   74.05    9.43
   4   9   2   76.62   10.59
  -4   9  -2   78.55   13.44
   4  -9   3   75.46    7.38
   4   9   3   75.08    9.98
   4   9   3   75.21    9.87
   4   9   3   71.01    9.09
   4  -9   3   79.60    7.95
  -4   9  -3   76.65   12.94
   4  -9   4   22.22    3.34
   4  -9   4   19.45    3.06
   4   9   4   19.16    4.11
   4   9   4   18.87    4.51
  -4   9  -4   20.23    6.41
   4  -9   5   15.24    2.64
   4  -9   5   13.50    2.40
   4   9   5   12.01    3.30
   4   9   5   15.89    3.73
  -4   9  -5   14.87    4.71
   4  -9   6    4.44    1.45
   4  -9   6    5.08    1.42
   4   9   6    3.75    1.94
   4   9   6    3.46    2.13
  -4   9  -6    3.74    2.82
   4  -9   7   12.77    2.41
   4  -9   7   16.30    2.24
   4   9   7   11.78    3.28
   4   9   7   12.72    3.58
  -4   9  -7   12.37    3.97
   4  -9   8   15.99    2.89
   4  -9   8   17.91    2.36
   4   9   8   13.54    2.85
   4   9   8   13.27    3.48
  -4   9  -8   16.47    4.53
   4  -9   9    0.39    0.66
   4  -9   9    0.00    0.52
   4   9   9   -0.05    0.95
   4   9   9    0.53    0.88
  -4   9  -9   -0.20    1.02
   4  -9  10    2.68    1.53
   4   9  10    3.98    2.12
   4   9  10    4.21    1.99
  -4   9 -10    4.44    1.61
   4  -9  11    4.63    1.61
   4   9  11    4.69    2.28
   4   9  11    4.48    2.19
  -4   9 -11    5.14    2.30
   4  -9  12   40.27    4.32
   4   9  12   29.61    5.46
   4   9  12   31.13    5.42
  -4   9 -12   38.76    5.67
   4  -9  13    9.15    1.98
   4   9  13    5.54    2.47
   4   9  13    7.75    2.54
  -4   9 -13    8.79    2.47
   4  -9  14    5.83    1.45
   4   9  14    3.54    2.14
   4   9  14    4.25    2.02
  -4   9 -14    5.89    1.95
   4  -9  15   -0.27    0.45
   4   9  15    0.14    0.75
   4   9  15    0.09    0.64
  -4   9 -15   -0.07    0.62
   4  -9  16    0.18    1.16
   4   9  16    6.23    1.85
   4   9  16    8.22    1.81
  -4   9 -16   11.43    1.74
   4   9  17    0.52    1.20
   4   9  17    1.94    1.04
  -4   9 -17    1.99    0.98
  -4  10  16   26.21    4.31
   4  10 -15   10.71    2.33
   4  10 -15   12.12    2.21
  -4  10  15   13.78    3.01
  -4  10  15   14.33    3.18
  -4 -10  15   13.31    1.73
   4 -10 -14    2.20    0.81
   4  10 -14    0.98    0.79
   4  10 -14    0.61    0.84
   4 -10 -14   -0.08    0.63
  -4  10  14    0.05    1.02
  -4  10  14    0.57    1.13
  -4 -10  14    0.40    0.63
   4 -10 -13    0.22    1.78
   4 -10 -13    0.36    1.16
   4  10 -13    5.75    1.06
   4  10 -13    4.04    1.56
  -4  10  13    3.35    1.75
  -4  10  13    4.88    2.11
  -4 -10  13    5.83    1.19
   4 -10 -12    0.01    1.77
   4  10 -12    7.26    1.82
   4  10 -12    5.95    1.97
   4 -10 -12    6.51    1.61
  -4  10  12    9.51    2.46
  -4  10  12    9.10    2.56
  -4 -10  12    5.97    1.38
   4 -10 -11    2.74    1.47
   4 -10 -11    3.06    1.38
   4  10 -11    3.58    1.62
   4  10 -11    2.10    1.61
  -4  10  11    5.17    1.81
  -4  10  11    3.41    2.13
  -4 -10  11    3.10    1.13
   4 -10 -10   45.14    5.51
   4 -10 -10   48.41    5.23
   4  10 -10   45.53    6.04
   4  10 -10   42.66    5.79
   4  10 -10   42.47    5.36
  -4  10  10   40.91    6.30
  -4  10  10   38.99    7.19
   4 -10  -9    2.50    1.04
   4 -10  -9    2.58    0.95
   4  10  -9    0.91    1.22
   4  10  -9    0.34    0.82
   4  10  -9    0.32    0.76
  -4  10   9    0.34    1.29
  -4  10   9    0.27    1.43
   4 -10  -8    0.55    1.25
   4 -10  -8    3.42    1.25
   4  10  -8    0.74    1.29
   4  10  -8    1.07    1.49
   4  10  -8    2.71    1.27
  -4  10   8    0.70    1.44
  -4  10   8    3.03    1.68
   4 -10  -7   26.15    3.99
   4 -10  -7   28.20    3.93
   4  10  -7   26.46    4.51
   4  10  -7   22.73    4.16
   4  10  -7   24.57    3.83
  -4  10   7   23.27    4.43
  -4  10   7   25.38    5.20
   4 -10  -6    4.42    1.74
   4 -10  -6    5.79    1.65
   4  10  -6    4.65    2.07
   4  10  -6    4.32    1.84
   4  10  -6    3.44    1.80
  -4  10   6    3.96    1.84
  -4  10   6    4.47    2.27
   4 -10  -5   23.42    3.48
   4  10  -5   23.00    4.47
   4  10  -5   18.83    2.89
   4  10  -5   22.34    4.04
   4 -10  -5   22.02    2.78
  -4  10   5   22.22    3.98
  -4  10   5   22.15    4.40
   4 -10  -4   40.52    4.84
   4 -10  -4   40.22    5.04
   4  10  -4   37.57    6.18
   4  10  -4   39.08    5.37
   4  10  -4   35.58    5.41
  -4  10   4   34.89    5.07
  -4  10   4   38.76    5.74
   4 -10  -3   16.35    2.70
   4 -10  -3   18.06    2.76
   4  10  -3   14.88    3.74
   4  10  -3   13.63    2.96
   4  10  -3   12.91    3.10
  -4  10   3   13.66    2.97
  -4  10   3   14.65    3.38
  -4  10   3    0.45    4.09
   4 -10  -2    0.63    0.82
   4  10  -2    0.34    1.26
   4  10  -2    0.20    0.70
   4  10  -2    3.40    1.10
   4 -10  -2    0.49    0.89
  -4  10   2    0.13    0.96
  -4  10   2    0.38    1.02
  -4  10   2    0.06    1.48
   4 -10  -1    5.29    1.62
   4  10  -1    5.05    1.92
   4  10  -1    6.51    2.47
   4  10  -1    5.18    2.14
   4 -10  -1    4.45    1.14
  -4  10   1    3.49    1.74
  -4  10   1    4.35    2.00
  -4  10   1    3.73    2.94
   4 -10   0    6.89    1.70
   4 -10   0    7.04    1.73
   4  10   0    6.85    2.23
   4  10   0    5.80    2.72
   4  10   0    6.70    2.28
  -4  10   0    3.57    1.84
  -4  10   0    4.41    2.90
   4 -10   1    8.17    1.95
   4 -10   1    8.66    1.97
   4  10   1    4.94    2.76
   4  10   1   10.15    2.55
   4  10   1    8.93    2.70
  -4  10  -1    8.79    2.28
  -4  10  -1    9.36    3.40
   4 -10   2   60.60    6.22
   4 -10   2   56.12    5.77
   4  10   2   49.54    5.60
   4  10   2   53.79    7.30
  -4  10  -2   63.76    9.30
   4 -10   3    0.72    0.86
   4 -10   3    0.77    0.76
   4  10   3    3.26    1.22
   4  10   3    0.17    0.79
   4  10   3   -0.03    1.15
  -4  10  -3   -0.06    1.48
   4 -10   4    4.29    1.53
   4 -10   4    6.22    1.41
   4  10   4    3.20    2.13
   4  10   4    4.65    2.09
  -4  10  -4    4.98    2.47
   4 -10   5    0.47    0.89
   4 -10   5    1.76    0.76
   4  10   5    0.53    1.18
   4  10   5    0.71    1.27
  -4  10  -5    0.78    1.52
   4 -10   6    9.11    1.80
   4 -10   6    6.06    1.59
   4  10   6    7.46    2.56
   4  10   6    8.36    2.65
  -4  10  -6    8.76    3.05
   4 -10   7   14.91    2.10
   4  10   7   11.96    3.35
   4  10   7   16.32    3.42
   4 -10   7   14.76    2.46
  -4  10  -7   14.12    3.72
   4 -10   8   22.62    3.15
   4  10   8   18.77    4.21
   4  10   8   22.46    4.16
  -4  10  -8   24.54    4.75
   4 -10   9   13.69    2.46
   4  10   9   11.04    3.36
   4  10   9   12.50    3.09
  -4  10  -9   12.99    3.56
   4 -10  10    6.48    1.67
   4  10  10    6.62    2.53
   4  10  10    6.58    2.24
  -4  10 -10    5.59    2.44
   4 -10  11    9.41    1.86
   4  10  11    6.83    2.60
   4  10  11    6.79    1.79
  -4  10 -11   10.82    2.58
   4 -10  12   24.86    3.03
   4  10  12   18.88    4.01
   4  10  12   19.20    3.86
  -4  10 -12   26.31    4.17
   4 -10  13    5.41    1.22
   4  10  13    3.65    1.90
   4  10  13    3.25    1.72
  -4  10 -13    4.14    1.88
   4  10  14   13.83    3.28
   4  10  14   16.47    2.85
  -4  10 -14   18.24    2.99
   4  10  15    0.16    0.66
  -4  10 -15    0.11    0.54
   4 -11 -12    8.31    1.48
   4  11 -12    6.32    1.56
   4  11 -12    5.80    1.97
  -4  11  12    6.09    2.31
  -4  11  12    7.14    2.16
  -4 -11  12    7.37    1.38
   4 -11 -11    0.21    0.88
   4 -11 -11    2.33    0.86
   4  11 -11    4.20    1.00
   4  11 -11    0.16    1.04
  -4  11  11    0.59    1.10
  -4  11  11    0.59    1.18
  -4 -11  11    0.88    0.75
   4 -11 -10    3.47    1.57
   4 -11 -10    5.85    1.36
   4  11 -10    4.88    1.50
   4  11 -10    3.29    1.67
  -4  11  10    4.48    1.80
  -4  11  10    3.33    1.84
  -4 -11  10    3.18    1.14
   4 -11  -9   11.17    1.98
   4 -11  -9   -0.21    1.74
   4  11  -9   12.24    2.36
   4  11  -9   10.13    2.45
   4  11  -9   10.60    1.58
  -4  11   9    9.32    2.37
  -4  11   9   11.71    2.56
   4 -11  -8    2.31    0.90
   4 -11  -8    0.31    0.88
   4  11  -8    2.99    1.02
   4  11  -8    0.01    1.11
   4  11  -8    0.42    0.97
  -4  11   8    0.27    1.02
  -4  11   8   -0.17    1.10
   4 -11  -7    0.26    0.90
   4  11  -7    1.36    1.03
   4  11  -7   -0.05    1.04
   4  11  -7    0.93    0.98
   4 -11  -7    1.28    0.96
  -4  11   7    0.42    1.11
  -4  11   7    3.13    1.18
   4 -11  -6   13.51    2.46
   4 -11  -6   14.43    2.53
   4  11  -6   13.07    2.98
   4  11  -6   10.72    2.86
   4  11  -6   13.95    2.82
  -4  11   6   12.87    3.00
  -4  11   6   16.27    3.26
   4 -11  -5    0.00    0.62
   4 -11  -5    0.03    0.61
   4  11  -5    0.13    0.75
   4  11  -5    0.49    0.76
   4  11  -5    0.22    0.68
  -4  11   5    0.41    0.75
  -4  11   5    0.15    0.80
   4 -11  -4    0.53    0.78
   4 -11  -4    0.23    0.72
   4  11  -4    0.55    0.86
   4  11  -4    0.55    0.89
   4  11  -4    0.25    0.90
  -4  11   4    0.32    0.84
  -4  11   4    1.07    0.97
   4 -11  -3    5.21    1.49
   4 -11  -3    4.79    1.63
   4  11  -3    6.45    2.03
   4  11  -3    5.20    2.05
   4  11  -3    5.04    1.88
  -4  11   3    6.16    1.89
  -4  11   3    4.45    2.00
   4 -11  -2    0.44    0.69
   4 -11  -2    0.16    0.69
   4  11  -2    0.37    0.88
   4  11  -2    0.63    0.93
   4  11  -2    0.75    0.86
  -4  11   2    0.53    0.81
  -4  11   2   -0.11    1.15
   4 -11  -1    0.79    0.87
   4 -11  -1    1.82    0.88
   4  11  -1    0.18    1.16
   4  11  -1    2.64    1.16
   4  11  -1    1.08    0.76
  -4  11   1    0.60    1.02
  -4  11   1    0.00    1.30
   4 -11   0    2.66    1.20
   4 -11   0    2.24    1.09
   4  11   0    2.73    1.53
   4  11   0    2.93    1.57
   4  11   0    2.49    1.40
  -4  11   0    3.40    1.49
  -4  11   0    0.14    1.67
   4 -11   1   11.13    1.77
   4 -11   1    9.67    1.67
   4  11   1   -0.68    2.16
   4  11   1    9.39    2.32
   4  11   1    9.15    2.30
  -4  11  -1    0.11    2.40
   4 -11   2    1.73    0.84
   4  11   2    0.85    1.31
   4  11   2    1.61    1.17
   4  11   2   -0.09    1.32
   4 -11   2    2.76    0.95
  -4  11  -2    0.24    1.34
   4 -11   3    0.43    0.61
   4 -11   3    0.14    0.53
   4  11   3    0.24    0.87
   4  11   3    0.50    0.81
  -4  11  -3    0.25    0.93
   4 -11   4    2.28    0.82
   4 -11   4    0.29    0.75
   4  11   4    0.23    1.27
   4  11   4    0.10    1.15
  -4  11  -4    3.96    1.35
   4 -11   5    6.81    1.49
   4 -11   5    6.73    1.33
   4  11   5    4.77    2.28
   4  11   5    6.58    2.01
  -4  11  -5    7.74    2.52
   4 -11   6    5.94    1.42
   4 -11   6    4.86    1.19
   4  11   6    4.41    1.34
   4  11   6    4.03    1.95
  -4  11  -6    6.85    2.24
   4 -11   7    2.63    0.96
   4  11   7    0.25    1.14
   4  11   7   -0.11    1.27
  -4  11  -7    2.81    1.33
   4 -11   8    3.69    1.19
   4  11   8    1.68    1.62
   4  11   8    3.13    1.49
  -4  11  -8    3.10    1.60
   4 -11   9    0.32    0.51
   4  11   9    0.06    0.78
   4  11   9   -0.02    0.69
  -4  11  -9    0.23    0.77
   4 -11  10   -0.36    0.60
   4  11  10   -0.06    0.88
   4  11  10    0.32    0.94
  -4  11 -10    2.44    0.83
   4 -11  11    2.33    0.77
   4  11  11    0.14    1.20
   4  11  11    0.30    0.98
  -4  11 -11    2.03    1.09
   4  11  12   -0.04    0.69
  -4  11 -12    0.17    0.56
   4  12  -8   -0.02    0.85
   4 -12  -8    2.13    0.79
  -4 -12   8    1.45    0.67
   4 -12  -7   20.66    2.42
   4  12  -7   18.63    2.96
   4  12  -7   17.20    3.24
   4 -12  -6    0.06    0.63
   4 -12  -6    1.17    0.64
   4  12  -6    1.08    0.79
   4  12  -6    0.25    0.80
   4  12  -6   -0.03    0.73
   4 -12  -5    2.74    0.93
   4 -12  -5    2.10    0.92
   4  12  -5    1.05    1.16
   4  12  -5    0.76    1.31
   4  12  -5    2.17    1.13
   4 -12  -4    4.07    1.36
   4 -12  -4    6.81    1.29
   4  12  -4    3.62    1.84
   4  12  -4    5.13    1.68
   4  12  -4    5.81    1.59
  -4  12   4    3.50    1.65
   4 -12  -3    5.32    1.24
   4 -12  -3    5.98    1.29
   4  12  -3   -0.34    1.56
   4  12  -3    3.10    1.56
   4  12  -3    6.14    1.44
  -4  12   3    3.24    1.50
   4 -12  -2   -0.30    0.65
   4 -12  -2    1.81    0.60
   4  12  -2   -0.08    0.75
   4  12  -2    0.07    0.84
   4  12  -2    0.23    0.72
   4 -12  -1    9.39    1.58
   4 -12  -1    8.87    1.42
   4  12  -1    1.32    1.94
   4  12  -1    5.85    1.96
   4  12  -1    7.34    1.78
   4 -12   0    9.54    1.53
   4 -12   0    8.53    1.38
   4  12   0    6.60    2.06
   4  12   0   -0.26    1.91
   4  12   0    7.95    1.85
   4 -12   1    0.59    0.79
   4 -12   1    2.18    0.80
   4  12   1    0.06    1.12
   4  12   1    2.82    0.99
   4 -12   2    2.11    0.85
   4 -12   2    2.80    0.81
   4  12   2    0.70    1.23
   4  12   2    1.13    1.10
   4 -12   3    1.75    0.79
   4  12   3    0.19    1.14
   4  12   3    2.78    1.01
   4 -12   4    2.26    0.83
   4  12   4    0.62    1.11
   4  12   4    1.84    0.99
   4 -12   5    0.11    0.50
   4  12   5    0.03    0.61
   4  12   5    0.28    0.57
   4 -12   6    6.40    1.36
   4  12   6    2.84    1.79
   4  12   6    7.17    1.77
   4  12   7    1.05    1.05
   5   0 -23    3.21    1.59
   5   0 -23    5.69    1.42
  -5   0  23    3.22    1.46
   5   0 -22    0.05    0.34
   5   0 -22    0.05    0.67
   5   0 -22    0.02    0.55
   5   0 -21    3.95    1.36
   5   0 -21    2.81    1.90
   5   0 -21    2.73    1.63
   5   0 -20   -0.04    1.20
   5   0 -20   -0.61    1.09
   5   0 -20    2.35    0.92
   5   0 -19    8.89    2.59
   5   0 -19    6.27    2.09
   5   0 -19    7.13    2.28
   5   0 -18    0.31    1.12
   5   0 -18    3.02    1.33
   5   0 -18    0.08    1.14
   5   0 -17   14.89    3.39
   5   0 -17   15.37    4.26
   5   0 -17   15.58    3.58
   5   0 -16    1.06    1.06
   5   0 -16   -0.35    1.25
   5   0 -16    0.55    1.04
   5   0 -15    5.62    2.08
   5   0 -15    3.80    2.18
   5   0 -15    5.50    2.75
   5   0 -14   -0.29    1.07
   5   0 -14   -0.06    0.71
   5   0 -14    0.12    0.54
   5   0 -14    0.35    0.83
   5   0 -13  157.27   18.94
   5   0 -13  187.89   17.38
   5   0 -13  181.59   18.99
   5   0 -13  168.92   18.26
   5   0 -12    0.29    0.82
   5   0 -12    0.00    0.62
   5   0 -12    0.02    0.48
   5   0 -12   -0.14    0.68
   5   0 -11   13.30    3.74
   5   0 -11   11.90    3.00
   5   0 -11   13.56    3.53
   5   0 -11   14.35    2.55
   5   0 -10   -0.19    1.46
   5   0 -10    2.85    1.16
   5   0 -10   -0.23    0.89
   5   0 -10    3.44    1.42
   5   0  -9   51.04    7.42
   5   0  -9   56.30    6.72
   5   0  -9   54.51    7.13
   5   0  -9   55.83    6.90
   5   0  -8   -0.07    1.02
   5   0  -8    2.28    0.93
   5   0  -8    0.09    0.65
   5   0  -8    0.08    0.97
   5   0  -7  268.22   23.89
   5   0  -7  318.12   24.61
   5   0  -7  313.84   25.62
   5   0  -7  321.77   26.68
   5   0  -6    3.08    1.28
   5   0  -6   -0.10    0.95
   5   0  -6    0.21    0.79
   5   0  -6    3.05    1.16
   5   0  -5    3.19    1.59
   5   0  -5    1.97    1.14
   5   0  -5    1.44    0.91
   5   0  -5    3.17    1.38
   5   0  -5    3.65    1.03
   5   0  -4   -0.02    0.64
   5   0  -4    2.50    0.88
   5   0  -4    0.02    0.51
   5   0  -4    0.28    0.57
   5   0  -4    0.05    0.57
   5   0  -4    0.45    0.78
   5   0  -3  465.88   30.31
   5   0  -3  466.28   36.65
   5   0  -3  472.18   32.02
   5   0  -3  485.20   31.22
   5   0  -3  490.33   36.53
   5   0  -3  499.93   36.97
   5   0  -2    2.97    1.37
   5   0  -2    0.64    0.72
   5   0  -2    0.01    0.80
   5   0  -2    0.36    0.98
   5   0  -2    2.14    0.91
   5   0  -1  589.25   37.91
   5   0  -1  575.50   37.36
   5   0  -1  608.18   45.08
   5   0  -1  556.62   38.05
   5   0   0    1.36    0.77
   5   0   0   -0.04    0.95
   5   0   0    2.08    0.83
   5   0   0   -0.42    1.04
   5   0   1   48.04    5.53
   5   0   1   44.85    4.38
   5   0   1   43.02    4.25
   5   0   1   40.56    4.38
   5   0   2    0.59    0.62
   5   0   2    0.37    0.69
   5   0   2    0.25    0.69
   5   0   2    0.32    0.64
   5   0   3  412.62   29.38
   5   0   3  398.94   30.04
   5   0   3  399.54   27.71
   5   0   3  453.87   32.90
   5   0   4    0.11    0.70
   5   0   4    1.89    0.66
   5   0   4    0.07    0.59
   5   0   4   -0.30    0.63
   5   0   5   85.63    7.64
   5   0   5   81.53    8.53
   5   0   5  104.89    8.71
   5   0   6    8.87    1.39
   5   0   6    0.37    1.08
   5   0   6    0.24    1.51
   5   0   7    5.01    1.67
   5   0   7    5.72    2.13
   5   0   7    5.05    1.44
   5   0   8    0.01    1.20
   5   0   8    0.94    1.21
   5   0   8    2.74    0.95
   5   0   8    0.03    0.84
   5   0   9    3.61    1.08
   5   0   9    3.38    1.33
   5   0   9    2.95    1.52
   5   0   9    4.77    1.90
   5   0  10    0.26    1.20
   5   0  10    2.06    1.17
   5   0  10    3.16    1.05
   5   0  10    0.13    1.50
   5   0  11  147.67   11.86
   5   0  11  145.30   12.13
   5   0  11  140.06   13.87
   5   0  11  147.04   15.77
  -5   0 -11  131.62   13.81
   5   0  12    0.46    0.64
   5   0  12   -0.24    0.73
   5   0  12    0.14    0.57
   5   0  12   -0.67    0.86
  -5   0 -12    0.51    0.73
   5   0  13  328.79   25.57
   5   0  13  304.59   31.12
   5   0  13  326.59   25.27
  -5   0 -13  281.29   21.91
  -5   0 -13  275.29   27.30
   5   0  14    2.18    1.02
   5   0  14   -0.05    1.03
   5   0  14    0.31    1.55
   5   0  15   34.89    4.28
   5   0  15   24.11    6.38
   5   0  15   31.55    4.53
   5   0  16    0.00    0.35
   5   0  16   -0.02    0.55
   5   0  16    0.25    0.82
   5   0  17   49.71    5.30
   5   0  17   46.15    5.82
   5   0  17   53.19    8.19
   5   0  18    2.08    0.88
   5   0  18    0.01    1.02
   5   0  18    0.61    1.66
   5   0  19   83.82    7.56
   5   0  19   82.25    8.38
   5   0  19   87.27   11.54
   5   0  20    3.37    1.18
   5   0  20    0.05    0.65
   5   0  20   -0.13    0.84
   5   0  21   46.57    3.75
   5   0  21   -0.02    3.69
   5   0  22   -0.32    0.87
   5   0  22    0.00    0.62
   5  -1 -23    2.22    1.34
   5   1 -23    3.29    1.42
   5   1 -23    2.85    1.22
  -5   1  23    2.49    1.27
   5  -1 -22   40.97    5.35
   5  -1 -22   46.83    4.80
   5   1 -22   45.51    4.70
   5   1 -22   49.30    5.36
   5   1 -22   44.50    5.51
  -5   1  22   37.42    5.08
   5  -1 -21    1.16    1.45
   5  -1 -21    3.71    1.28
   5   1 -21    2.52    1.10
   5   1 -21    1.49    1.42
   5   1 -21    1.40    1.22
  -5   1  21    1.08    1.26
   5  -1 -20    9.71    1.75
   5  -1 -20   12.17    3.25
   5  -1 -20   11.03    2.56
   5   1 -20   12.35    2.46
   5   1 -20    7.33    2.61
   5   1 -20    9.79    2.50
   5   1 -19   14.56    3.03
   5  -1 -19   11.98    2.99
   5  -1 -19   13.89    3.61
   5   1 -19   13.98    3.47
   5   1 -19   15.26    3.12
   5  -1 -19   16.42    3.45
   5  -1 -18    6.51    2.09
   5  -1 -18    7.81    2.83
   5  -1 -18    6.41    2.53
   5   1 -18    7.26    2.20
   5   1 -18    7.14    2.44
   5   1 -18    4.99    2.47
   5   1 -17   -0.19    1.20
   5  -1 -17    0.48    1.08
   5  -1 -17    0.93    1.25
   5   1 -17    1.31    1.06
   5   1 -17    0.08    1.29
   5  -1 -17    1.45    1.13
   5  -1 -16    0.92    1.37
   5  -1 -16    0.81    1.64
   5   1 -16    3.65    1.40
   5   1 -16    3.54    1.86
   5   1 -16    0.65    1.60
   5  -1 -16    0.22    1.93
   5  -1 -15    1.18    1.08
   5  -1 -15    0.42    1.98
   5  -1 -15    4.62    1.80
   5   1 -15    3.55    1.59
   5   1 -15    4.76    1.94
   5   1 -15    0.48    1.79
   5  -1 -14   29.43    6.34
   5  -1 -14   35.66    5.36
   5  -1 -14   29.96    4.86
   5   1 -14   27.36    6.95
   5   1 -14   32.22    6.01
   5   1 -14   32.72    6.10
   5   1 -14   39.96    5.30
   5  -1 -14   32.12    5.28
   5   1 -13    7.15    2.33
   5  -1 -13    4.93    3.32
   5  -1 -13    7.81    2.37
   5  -1 -13    7.35    2.90
   5   1 -13    5.89    3.03
   5   1 -13    6.25    1.90
   5   1 -13    8.51    2.76
   5  -1 -13    5.74    2.55
   5  -1 -12   36.73    7.38
   5  -1 -12   42.10    5.64
   5  -1 -12   43.34    6.63
   5   1 -12   40.84    7.09
   5   1 -12   40.20    6.05
   5   1 -12   40.20    6.71
   5   1 -12   39.76    6.11
   5  -1 -12   40.97    6.05
   5  -1 -11   62.80    9.92
   5  -1 -11   74.87    8.24
   5  -1 -11   71.50    9.23
   5  -1 -11   72.98    8.65
   5   1 -11   58.28    8.53
   5   1 -11   66.82    7.94
   5   1 -11   58.27    7.88
   5   1 -11   66.13    8.99
   5  -1 -10   42.34    6.14
   5  -1 -10   31.95    5.58
   5  -1 -10   38.31    5.28
   5  -1 -10   36.68    5.89
   5   1 -10   32.76    5.92
   5   1 -10   34.53    5.27
   5   1 -10   38.61    5.61
   5   1 -10   36.29    5.38
   5  -1  -9   18.97    4.25
   5  -1  -9   16.59    3.56
   5  -1  -9   18.74    3.24
   5  -1  -9   17.60    3.57
   5   1  -9   18.51    2.89
   5   1  -9   15.57    3.52
   5   1  -9   17.87    3.67
   5   1  -9   19.73    3.52
   5   1  -8   13.08    2.61
   5  -1  -8    5.79    2.93
   5  -1  -8   10.60    2.40
   5  -1  -8   10.34    2.75
   5   1  -8    9.14    2.52
   5   1  -8    9.72    2.78
   5   1  -8   10.56    2.74
   5  -1  -8   13.27    3.05
   5  -1  -7   30.49    5.36
   5  -1  -7   32.66    4.35
   5  -1  -7   40.47    5.01
   5  -1  -7   33.65    5.32
   5   1  -7   23.41    4.22
   5   1  -7   33.10    4.60
   5   1  -7   35.02    4.86
   5   1  -7   30.65    4.45
   5  -1  -6   18.55    3.51
   5   1  -6   19.48    3.31
   5  -1  -6   20.50    4.25
   5  -1  -6   18.99    3.12
   5  -1  -6   21.78    2.38
   5  -1  -6   23.28    3.82
   5  -1  -6   23.75    2.85
   5   1  -6   17.28    3.26
   5   1  -6   18.32    3.53
   5   1  -6   20.00    3.22
   5  -1  -5    0.12    0.70
   5   1  -5    3.19    0.76
   5  -1  -5    0.51    0.97
   5  -1  -5    0.29    0.55
   5  -1  -5    0.13    0.60
   5  -1  -5    0.52    0.87
   5   1  -5   -0.06    0.62
   5   1  -5    0.13    0.92
   5   1  -5   -0.02    0.73
   5  -1  -5    0.05    0.67
   5  -1  -4   13.74    3.53
   5  -1  -4   16.94    2.49
   5  -1  -4   15.20    2.16
   5  -1  -4   14.80    2.98
   5  -1  -4   16.95    3.09
   5  -1  -4   14.74    2.51
   5   1  -4   15.43    3.15
   5   1  -4   14.83    2.91
   5   1  -4   18.01    2.76
   5   1  -4   17.18    2.19
   5   1  -4   16.24    2.62
   5  -1  -3   61.74    4.93
   5  -1  -3   62.70    8.03
   5  -1  -3   58.31    6.48
   5  -1  -3   49.38    5.89
   5  -1  -3   57.96    4.81
   5   1  -3   57.66    5.51
   5   1  -3   55.28    4.74
   5   1  -3   56.76    5.59
   5   1  -3   54.86    6.17
   5   1  -3   60.09    5.34
   5   1  -3   53.47    5.86
   5  -1  -2   26.28    3.30
   5   1  -2   21.86    2.81
   5  -1  -2   23.16    2.89
   5  -1  -2   23.25    3.75
   5  -1  -2   22.89    3.53
   5   1  -2   27.90    4.39
   5   1  -2   23.76    2.81
   5   1  -2   24.46    3.33
   5   1  -2   24.38    3.07
   5  -1  -2   28.34    4.82
   5   1  -1   23.86    3.51
   5  -1  -1   25.94    3.17
   5  -1  -1   27.53    3.97
   5  -1  -1   33.13    3.71
   5  -1  -1   27.56    3.82
   5   1  -1   31.35    3.29
   5   1  -1   25.98    3.30
   5   1  -1   30.91    3.59
   5  -1   0    4.82    1.52
   5  -1   0    6.35    1.44
   5  -1   0    3.85    1.22
   5  -1   0    5.05    1.66
   5   1   0    4.63    1.38
   5   1   0    4.73    1.47
   5   1   0    4.45    1.35
   5   1   0    6.36    1.57
   5  -1   1   19.65    2.90
   5   1   1   20.80    2.99
   5  -1   1   20.56    2.79
   5  -1   1   19.83    3.24
   5  -1   1   20.21    3.48
   5   1   1   23.22    2.34
   5   1   1   23.76    2.86
   5   1   1   20.23    3.15
   5  -1   2  103.28    8.42
   5  -1   2   92.53    8.19
   5  -1   2  100.29    9.25
   5   1   2  103.47    7.87
   5   1   2  100.31    8.91
   5   1   2   96.43    7.58
   5   1   2   99.47    8.35
   5  -1   2   98.78    8.38
   5   1   3    1.14    1.17
   5  -1   3    2.68    0.91
   5  -1   3    2.79    1.03
   5  -1   3    0.36    0.71
   5  -1   3    0.67    0.89
   5   1   3    1.05    0.97
   5   1   3    1.64    0.86
   5  -1   4   62.50    5.03
   5  -1   4   50.84    5.98
   5  -1   4   63.11    6.25
   5   1   4   58.88    5.87
   5   1   4   64.05    6.89
   5   1   4   55.40    5.38
   5  -1   4   58.25    5.48
   5  -1   5    2.14    0.83
   5  -1   5    2.88    1.02
   5  -1   5   -0.11    1.05
   5  -1   5    0.17    1.04
   5   1   5    3.01    1.32
   5   1   5    2.52    0.76
   5   1   5    0.05    0.95
   5   1   6  132.08   11.35
   5   1   6  135.93   12.25
   5  -1   6  145.67   13.17
   5  -1   6  130.99   10.00
   5  -1   6  136.10   11.19
   5  -1   6  128.56    9.75
   5   1   6  131.60    9.96
   5   1   6  126.41    9.77
   5   1   6  119.30   10.93
   5  -1   7   12.27    2.15
   5  -1   7    9.84    2.28
   5  -1   7    7.32    2.49
   5   1   7    8.56    1.85
   5   1   7   12.02    2.22
   5   1   7   10.10    1.94
   5   1   7    8.97    2.59
   5   1   7    9.07    2.43
  -5   1  -7    7.75    3.16
   5  -1   8    8.29    1.76
   5  -1   8    7.44    1.80
   5  -1   8    8.44    1.93
   5   1   8    4.86    2.03
   5   1   8    6.12    1.85
   5   1   8    5.96    1.55
   5   1   8    3.31    1.47
   5   1   8    5.58    2.13
   5  -1   9   69.86    7.22
   5  -1   9   69.41    7.80
   5   1   9   62.59    6.69
   5   1   9   67.64    6.30
   5   1   9   77.31    8.38
   5   1   9   62.99    8.34
   5   1   9   68.40    7.58
   5  -1   9   71.59    7.15
   5  -1  10   10.06    2.03
   5  -1  10    8.13    2.39
   5  -1  10    8.69    2.14
   5   1  10    7.90    2.26
   5   1  10    5.64    1.86
   5   1  10    8.64    2.75
   5   1  10   10.72    2.63
  -5  -1 -10    6.34    2.31
   5  -1  11   10.04    2.10
   5  -1  11    8.17    2.91
   5   1  11    9.50    1.75
   5   1  11   10.86    2.16
   5   1  11    6.97    2.96
   5  -1  11    4.96    2.23
  -5   1 -11    6.85    1.94
  -5  -1 -11    9.20    2.19
   5  -1  12  188.15   17.07
   5  -1  12  228.41   18.54
   5  -1  12  212.27   21.34
   5   1  12  227.44   19.37
   5   1  12  237.58   18.50
   5   1  12  226.56   24.18
  -5   1 -12  190.10   17.88
  -5  -1 -12  206.62   17.41
   5  -1  13    9.58    2.25
   5  -1  13    9.88    2.19
   5  -1  13   11.45    3.28
   5   1  13   10.08    2.28
   5   1  13   11.25    2.48
   5  -1  13   10.13    2.76
   5   1  13    8.87    3.73
  -5   1 -13    9.77    2.19
  -5  -1 -13    8.30    2.42
   5  -1  14  112.47   10.67
   5  -1  14  115.89   14.69
   5   1  14  117.75   11.31
   5   1  14  117.16   10.72
   5   1  14  116.00   15.19
   5  -1  14  105.60   10.24
   5  -1  15    2.83    0.91
   5  -1  15    2.71    1.43
   5   1  15    0.88    1.56
   5   1  15    4.08    2.24
   5   1  15    3.21    1.37
   5  -1  15    4.05    2.17
   5  -1  16    2.71    1.03
   5  -1  16    2.06    1.13
   5  -1  16    2.32    1.87
   5   1  16    0.77    1.12
   5   1  16    0.78    1.30
   5   1  16    1.24    1.96
   5  -1  17   10.59    1.90
   5  -1  17    7.64    2.15
   5  -1  17    8.85    3.59
   5   1  17   11.71    2.14
   5   1  17    7.71    2.64
   5   1  17    8.40    3.65
   5  -1  18    7.75    1.74
   5  -1  18    2.27    2.89
   5   1  18    9.47    2.01
   5   1  18    8.15    2.18
   5   1  18    8.98    2.33
   5  -1  18    6.81    1.97
   5  -1  19   13.92    2.14
   5  -1  19   14.62    2.67
   5  -1  19   -0.39    3.33
   5   1  19   13.42    2.62
   5   1  19   13.29    4.02
   5   1  19   15.61    2.23
   5  -1  20    3.96    1.56
   5  -1  20   -0.60    2.08
   5   1  20    4.32    1.18
   5   1  20    7.68    2.05
   5   1  20    3.21    1.61
   5  -1  21    0.88    1.18
   5  -1  21    3.55    1.52
   5   1  21    1.83    0.85
   5   1  21    0.53    1.11
   5   1  21    1.33    1.41
   5  -1  22   -0.02    0.83
   5  -1  22   -0.37    1.19
   5   1  22    0.61    0.87
   5   1  22    2.68    1.01
   5  -2 -23    0.02    0.87
   5   2 -23    2.65    0.68
   5   2 -23   -0.02    0.82
   5   2 -23    0.04    0.89
  -5   2  23    0.07    0.92
  -5   2  23    0.16    0.91
   5  -2 -22   13.63    3.07
   5  -2 -22   14.39    2.55
   5   2 -22   14.73    2.45
   5   2 -22   17.58    3.06
   5   2 -22   18.80    2.67
  -5   2  22   11.46    3.15
  -5   2  22   15.09    2.90
   5  -2 -21   11.36    2.81
   5  -2 -21   11.79    2.29
   5   2 -21   11.97    2.33
   5   2 -21   10.20    2.78
   5   2 -21   12.35    2.39
  -5   2  21    8.98    2.62
   5  -2 -20   19.12    3.21
   5   2 -20   16.27    3.34
   5   2 -20   19.51    3.43
   5  -2 -20   18.07    3.85
   5   2 -20   19.22    3.35
  -5   2  20   14.80    3.42
   5  -2 -19   24.53    4.88
   5  -2 -19   26.68    4.11
   5   2 -19   24.02    3.74
   5   2 -19   21.53    4.21
   5   2 -19   22.69    4.19
  -5   2  19   21.95    4.28
   5  -2 -18    6.08    1.82
   5  -2 -18    6.46    2.57
   5  -2 -18    3.68    2.12
   5   2 -18    4.60    1.46
   5   2 -18    5.19    2.15
   5   2 -18    3.96    2.13
   5  -2 -17    3.56    2.07
   5  -2 -17    3.28    1.81
   5   2 -17    2.49    1.57
   5   2 -17    2.00    1.34
   5   2 -17    1.14    1.84
   5  -2 -17    3.43    1.60
   5  -2 -16    8.14    2.42
   5  -2 -16    6.48    2.70
   5   2 -16    6.83    2.85
   5   2 -16    4.62    2.76
   5   2 -16    7.12    2.52
   5  -2 -16    6.86    2.98
   5  -2 -15    3.26    2.20
   5  -2 -15    4.37    1.86
   5  -2 -15    5.49    2.53
   5   2 -15    3.82    2.15
   5   2 -15    1.71    2.31
   5   2 -15    6.55    2.35
   5  -2 -14   12.33    2.96
   5  -2 -14   10.86    2.86
   5  -2 -14   12.63    3.45
   5   2 -14   13.53    3.16
   5   2 -14   11.27    3.67
   5   2 -14   13.24    3.47
   5  -2 -13   27.60    3.58
   5  -2 -13   11.97    3.18
   5  -2 -13    9.68    3.71
   5  -2 -13   10.36    3.47
   5   2 -13    5.63    4.07
   5   2 -13   11.92    3.12
   5   2 -13    8.76    3.10
   5   2 -13   10.81    3.37
   5  -2 -12    0.55    1.21
   5  -2 -12    3.55    1.67
   5  -2 -12    3.44    1.52
   5   2 -12    1.10    1.63
   5   2 -12    2.95    1.38
   5   2 -12    0.60    1.33
   5   2 -12    1.10    1.47
   5   2 -12    0.03    1.06
   5  -2 -12    0.49    1.45
   5  -2 -11    0.81    1.49
   5  -2 -11    1.99    0.94
   5  -2 -11    1.47    1.61
   5  -2 -11    1.13    1.63
   5   2 -11    0.95    1.61
   5   2 -11    1.31    1.39
   5   2 -11    3.22    1.53
   5   2 -11    2.52    1.39
   5  -2 -10  157.88   14.75
   5  -2 -10  166.63   16.53
   5  -2 -10  179.61   17.89
   5   2 -10  151.18   16.05
   5   2 -10  176.15   14.97
   5   2 -10  166.17   16.53
   5   2 -10  163.62   16.23
   5  -2 -10  141.57   15.43
   5   2  -9    5.36    2.08
   5  -2  -9    4.78    1.39
   5  -2  -9    5.47    1.88
   5  -2  -9    5.66    2.17
   5  -2  -9    4.59    2.22
   5   2  -9    3.35    2.07
   5   2  -9    4.52    1.90
   5   2  -9    3.80    2.03
   5  -2  -8   50.71    7.17
   5  -2  -8   48.91    5.92
   5  -2  -8   49.46    6.40
   5  -2  -8   55.18    7.04
   5   2  -8   39.87    5.67
   5   2  -8   49.94    6.27
   5   2  -8   52.49    6.24
   5   2  -8   50.17    6.36
   5  -2  -7   62.26    8.17
   5  -2  -7   62.35    6.19
   5  -2  -7   60.54    5.13
   5  -2  -7   59.42    7.04
   5  -2  -7   61.61    5.72
   5   2  -7   53.76    6.31
   5   2  -7   58.45    6.52
   5   2  -7   55.91    6.72
   5   2  -7   57.54    6.83
   5  -2  -7   64.71    8.18
   5  -2  -6   18.19    2.62
   5  -2  -6   19.87    3.92
   5  -2  -6   19.45    2.81
   5  -2  -6   16.46    2.44
   5  -2  -6   17.31    3.47
   5  -2  -6   17.26    3.50
   5   2  -6   18.73    3.55
   5   2  -6   17.68    3.01
   5   2  -6   16.90    3.35
   5   2  -6   16.96    2.83
   5  -2  -5   90.75    8.19
   5  -2  -5   91.70    7.58
   5  -2  -5   90.46    7.26
   5  -2  -5   86.33    9.09
   5  -2  -5   89.75    7.58
   5   2  -5   88.77    9.22
   5   2  -5   86.68    8.37
   5   2  -5   82.18    7.82
   5   2  -5   91.25    8.84
   5  -2  -5   82.14   10.32
   5   2  -4  272.72   21.48
   5  -2  -4  257.46   22.98
   5  -2  -4  273.24   18.89
   5  -2  -4  254.36   20.46
   5  -2  -4  255.20   19.92
   5  -2  -4  257.08   17.20
   5   2  -4  274.37   21.50
   5   2  -4  252.40   20.05
   5   2  -4  249.79   19.05
   5  -2  -4  268.99   18.51
   5  -2  -3  123.38    9.89
   5  -2  -3  135.08   12.76
   5  -2  -3  128.77    9.73
   5  -2  -3  123.82   11.52
   5  -2  -3  127.37   11.68
   5   2  -3  128.56   11.36
   5   2  -3  115.07   10.35
   5   2  -3  131.53   11.41
   5   2  -3  133.09   10.11
   5   2  -3  117.73    8.23
   5  -2  -2    0.17    1.40
   5  -2  -2    3.68    1.06
   5  -2  -2    2.84    1.46
   5  -2  -2    2.60    1.35
   5   2  -2    2.78    1.51
   5   2  -2    3.32    0.95
   5   2  -2    1.89    1.00
   5   2  -2    3.30    1.16
   5   2  -2    2.38    1.00
   5  -2  -2    2.66    1.33
   5  -2  -1  181.81   13.03
   5  -2  -1  179.38   15.60
   5  -2  -1  182.85   14.13
   5   2  -1  180.83   13.90
   5   2  -1  182.74   14.11
   5   2  -1  165.27   12.18
   5   2  -1  173.65   12.60
   5  -2  -1  165.54   14.09
   5  -2   0   27.70    3.28
   5  -2   0   23.99    3.90
   5  -2   0   25.84    3.58
   5  -2   0   28.75    2.89
   5   2   0   27.14    3.41
   5   2   0   24.50    3.21
   5   2   0   23.98    2.99
   5   2   0   28.20    2.64
   5  -2   1   13.50    2.43
   5   2   1   10.29    2.18
   5  -2   1   13.09    2.20
   5  -2   1   13.91    2.74
   5  -2   1   12.52    2.62
   5   2   1   11.55    2.12
   5   2   1   14.49    2.22
   5  -2   2  322.30   21.74
   5  -2   2  342.09   26.76
   5  -2   2  334.66   24.25
   5   2   2  338.68   23.09
   5   2   2  310.06   22.91
   5   2   2  348.43   23.88
   5  -2   2  344.27   25.28
   5  -2   3   65.52    5.43
   5   2   3   65.04    5.72
   5  -2   3   67.65    6.31
   5  -2   3   74.33    7.00
   5  -2   3   61.12    5.47
   5   2   3   64.07    6.36
   5   2   3   59.11    5.21
   5   2   3   65.85    6.66
   5  -2   4    2.58    0.90
   5  -2   4    0.33    0.73
   5  -2   4    0.22    0.81
   5   2   4    0.28    0.65
   5   2   4    0.37    0.89
   5   2   4    0.46    0.94
   5   2   4    2.06    0.73
   5  -2   5  215.96   17.03
   5   2   5  214.71   18.49
   5  -2   5  200.94   14.38
   5  -2   5  196.93   16.31
   5  -2   5  204.50   14.37
   5   2   5  207.18   15.78
   5   2   5  200.74   17.49
   5  -2   6    8.03    1.77
   5  -2   6    5.78    1.95
   5  -2   6    7.07    1.59
   5   2   6    7.44    2.00
   5   2   6    6.46    2.30
   5   2   6    7.89    2.07
   5  -2   6    5.71    1.99
   5  -2   7   15.31    2.42
   5  -2   7   17.19    3.20
   5  -2   7   15.14    2.24
   5   2   7   18.31    2.31
   5   2   7   11.02    2.21
   5   2   7   17.76    3.24
   5   2   7   14.79    3.17
  -5   2  -7   12.72    4.50
   5   2   8   58.30    6.26
   5  -2   8   56.13    6.73
   5  -2   8   56.39    5.86
   5  -2   8   57.73    6.31
   5   2   8   48.14    5.42
   5   2   8   51.73    6.84
  -5   2  -8   52.23    9.19
   5  -2   9   71.93    7.56
   5  -2   9   65.97    6.72
   5  -2   9   63.34    5.94
   5   2   9   70.62    7.37
   5   2   9   56.68    6.28
   5   2   9   60.27    7.94
  -5   2  -9   68.75    9.90
  -5  -2  -9   63.46    6.43
   5   2  10   79.18    7.93
   5  -2  10   88.84    8.60
   5  -2  10   85.57    8.89
   5   2  10   93.54    9.63
   5   2  10   77.28   10.51
   5  -2  10   93.40    9.61
  -5   2 -10   83.69   12.38
  -5  -2 -10   85.71    8.01
   5  -2  11  176.62   14.91
   5  -2  11  181.32   17.06
   5   2  11  189.17   17.23
   5   2  11  181.95   14.33
   5   2  11  169.38   19.10
  -5   2 -11  155.86   17.47
  -5  -2 -11  178.32   15.34
   5  -2  12   29.34    4.19
   5   2  12   38.83    5.13
   5   2  12   34.09    6.54
   5   2  12   31.16    4.65
   5  -2  12   34.26    4.55
  -5   2 -12   29.42    5.33
  -5  -2 -12   34.28    3.81
   5  -2  13   57.58    5.42
   5  -2  13   63.38    8.86
   5   2  13   52.93    5.59
   5   2  13   57.57    8.97
   5   2  13   60.65    6.76
   5   2  14    7.93    2.69
   5  -2  14    8.83    2.05
   5  -2  14    9.99    3.58
   5   2  14   11.32    2.37
   5   2  14    7.95    3.62
   5  -2  15    3.81    1.41
   5  -2  15    3.99    1.45
   5  -2  15    3.73    2.38
   5   2  15    4.35    1.52
   5   2  15    3.65    1.88
   5   2  15    2.66    1.79
   5  -2  16    4.29    1.30
   5  -2  16   -0.15    2.20
   5   2  16    4.06    1.47
   5   2  16    5.32    1.94
   5   2  16    4.32    2.49
   5  -2  16    3.11    1.36
   5  -2  17    0.50    4.33
   5   2  17   26.96    3.51
   5  -2  17   25.74    3.16
   5  -2  17   24.32    3.37
   5   2  17   22.84    3.97
   5   2  17   24.95    5.32
   5   2  18    9.91    2.56
   5  -2  18   11.15    1.97
   5  -2  18   10.67    2.26
   5  -2  18   -0.10    2.83
   5   2  18   11.76    2.24
   5   2  18   15.77    3.59
   5  -2  19   54.68    5.45
   5   2  19   48.83    4.87
   5   2  19   44.36    5.71
   5   2  19   54.77    7.78
   5  -2  20   33.21    4.04
   5   2  20   32.37    3.64
   5   2  20   28.17    4.28
   5   2  20   33.22    5.50
   5  -2  21   13.31    2.24
   5  -2  21    0.00    2.67
   5   2  21    9.57    1.67
   5   2  21   11.02    2.33
   5   2  21   12.07    2.76
   5   2  22    2.55    1.26
   5  -2  22    1.25    0.91
   5   2  22    0.73    1.06
   5   3 -23   14.78    2.54
   5  -3 -22    0.16    1.10
   5   3 -22    0.73    0.80
   5   3 -22    0.53    1.12
   5   3 -22    0.41    0.88
  -5   3  22    2.60    1.18
  -5   3  22    2.25    1.06
   5  -3 -21   10.13    2.64
   5  -3 -21    9.58    2.17
   5   3 -21   12.89    2.19
   5   3 -21   12.61    2.79
   5   3 -21   10.96    2.52
  -5   3  21    7.71    2.82
  -5   3  21   13.38    2.64
   5  -3 -20    0.40    1.23
   5   3 -20    0.91    1.06
   5   3 -20    1.36    1.02
   5   3 -20    0.61    0.93
   5  -3 -20    0.26    0.86
  -5   3  20    0.25    1.18
  -5   3  20    1.12    1.04
   5  -3 -19   14.17    3.42
   5  -3 -19   15.11    2.88
   5   3 -19   17.50    2.97
   5   3 -19   15.10    3.22
   5   3 -19   14.14    3.26
  -5   3  19   11.69    3.74
  -5   3  19   15.64    3.32
   5  -3 -18   34.09    5.85
   5  -3 -18   40.73    5.20
   5   3 -18   38.78    5.16
   5   3 -18   33.66    5.43
   5   3 -18   37.37    5.44
  -5   3  18   32.82    5.99
  -5   3  18   33.62    5.78
   5  -3 -17   12.67    2.84
   5   3 -17    8.14    2.89
   5   3 -17   10.45    3.27
   5   3 -17   12.53    2.85
   5  -3 -17   11.33    3.40
  -5   3  17   10.76    2.93
   5  -3 -16    0.10    1.65
   5  -3 -16    2.55    1.44
   5   3 -16    1.45    1.49
   5   3 -16    0.54    1.67
   5   3 -16    3.44    1.40
  -5   3  16    0.93    1.51
   5  -3 -15   -0.03    0.93
   5   3 -15   -0.04    1.03
   5   3 -15    0.08    0.99
   5   3 -15    1.13    1.05
   5  -3 -15   -0.12    1.10
  -5   3  15    0.67    0.73
   5  -3 -14    4.68    2.01
   5  -3 -14    3.23    2.16
   5  -3 -14    4.72    2.01
   5   3 -14    3.48    1.98
   5   3 -14    3.97    2.06
   5   3 -14    1.67    1.16
   5   3 -14    7.77    2.07
   5  -3 -13   24.30    3.46
   5  -3 -13   17.19    4.35
   5  -3 -13   22.33    3.25
   5  -3 -13   20.87    4.90
   5   3 -13   20.68    4.53
   5   3 -13   17.37    5.64
   5   3 -13   22.03    4.33
   5   3 -13   19.83    3.74
   5   3 -13   23.54    4.57
   5  -3 -12   78.27   10.67
   5  -3 -12  100.13   10.89
   5  -3 -12   98.86   10.32
   5  -3 -12   97.58   11.07
   5   3 -12   85.44   12.08
   5   3 -12   95.77   10.71
   5   3 -12   88.10   10.58
   5   3 -12   96.67    9.89
   5   3 -12   95.13   11.08
   5  -3 -11   -0.01    0.94
   5  -3 -11    0.26    0.83
   5  -3 -11    0.38    0.87
   5   3 -11    0.50    0.95
   5   3 -11    0.10    0.57
   5   3 -11   -0.06    0.81
   5   3 -11   -0.08    0.75
   5   3 -11    0.43    0.80
   5  -3 -11    0.20    0.97
  -5   3  11    0.05    0.84
   5  -3 -10  105.02   12.47
   5  -3 -10  104.18   10.42
   5  -3 -10  100.96   10.08
   5   3 -10  102.38   12.26
   5   3 -10  102.97   10.92
   5   3 -10  100.37   11.00
   5   3 -10  105.27   10.74
   5   3 -10  101.55   11.11
   5  -3 -10  106.40   10.84
  -5   3  10   99.68   10.90
   5  -3  -9    9.20    2.40
   5  -3  -9    8.92    2.98
   5  -3  -9    9.49    1.66
   5  -3  -9   10.42    2.81
   5  -3  -9   11.07    2.61
   5   3  -9    8.62    2.12
   5   3  -9   12.88    2.65
   5   3  -9    8.70    2.66
   5   3  -9    6.36    2.41
   5   3  -9    9.38    1.85
  -5  -3   9    6.32    1.94
   5  -3  -8   46.44    5.38
   5  -3  -8   53.21    5.60
   5  -3  -8   49.48    5.97
   5  -3  -8   49.85    4.65
   5  -3  -8   52.29    6.55
   5   3  -8   41.49    5.74
   5   3  -8   51.84    6.27
   5   3  -8   46.19    5.98
   5   3  -8   44.81    6.06
   5   3  -8   49.81    5.71
   5  -3  -8   51.41    6.84
  -5  -3   8   36.93    4.37
   5  -3  -7    1.06    1.16
   5  -3  -7    0.26    0.96
   5  -3  -7   -0.22    1.00
   5  -3  -7    2.25    0.76
   5  -3  -7    2.96    1.11
   5  -3  -7    1.03    0.87
   5   3  -7    2.44    1.06
   5   3  -7    0.32    1.14
   5   3  -7    0.37    1.09
   5   3  -7    0.06    1.00
   5   3  -7    0.97    0.99
  -5  -3   7   -0.01    0.74
   5  -3  -6  305.57   26.11
   5  -3  -6  275.03   25.62
   5  -3  -6  311.93   22.29
   5  -3  -6  330.75   24.53
   5  -3  -6  302.98   21.45
   5  -3  -6  317.62   27.13
   5   3  -6  296.84   24.68
   5   3  -6  295.11   23.55
   5   3  -6  314.28   24.77
   5   3  -6  294.49   24.42
   5   3  -6  304.54   23.95
  -5  -3   6  269.29   21.20
   5  -3  -5    0.30    0.61
   5  -3  -5    1.07    1.42
   5  -3  -5    0.66    1.04
   5  -3  -5    3.87    1.14
   5  -3  -5    3.42    1.25
   5   3  -5    0.26    1.06
   5   3  -5   -0.09    1.03
   5   3  -5    0.42    0.97
   5   3  -5    0.27    1.17
   5   3  -5    2.37    0.84
  -5  -3   5    1.02    0.77
   5  -3  -4   49.94    6.76
   5  -3  -4   45.74    4.80
   5  -3  -4   42.55    4.27
   5  -3  -4   38.96    5.14
   5  -3  -4   44.85    5.61
   5   3  -4   40.57    4.97
   5   3  -4   40.55    4.16
   5   3  -4   42.09    4.76
   5   3  -4   37.94    4.84
   5   3  -4   36.21    4.26
  -5   3   4   41.82    4.81
  -5  -3   4   33.08    3.72
   5  -3  -3   51.31    6.02
   5  -3  -3   63.54    6.16
   5  -3  -3   57.29    5.31
   5  -3  -3   64.89    6.58
   5   3  -3   64.20    6.77
   5   3  -3   54.70    5.99
   5   3  -3   53.78    5.52
   5   3  -3   53.60    5.61
  -5   3   3   54.13    5.61
  -5  -3   3   45.23    4.90
   5  -3  -2    2.44    1.04
   5  -3  -2    0.25    0.89
   5  -3  -2    2.13    1.13
   5   3  -2    0.32    0.99
   5   3  -2    3.05    0.94
   5  -3  -2   -0.06    1.05
  -5  -3   2    1.67    0.74
   5  -3  -1   11.66    1.76
   5  -3  -1   13.38    2.06
   5  -3  -1    7.34    2.39
   5  -3  -1   12.57    2.63
   5   3  -1   10.51    1.82
   5   3  -1   11.69    2.15
  -5  -3   1   10.88    1.68
   5  -3   0  100.80    9.26
   5  -3   0  104.48    8.89
   5  -3   0  109.30    8.93
   5   3   0  111.22    8.53
   5   3   0  112.17    9.55
   5  -3   0  111.15   10.22
  -5  -3   0  103.92    7.44
   5  -3   1    0.66    0.93
   5  -3   1    0.15    1.10
   5  -3   1    0.96    0.75
   5   3   1    1.21    0.84
   5   3   1    0.75    1.00
   5  -3   1    2.88    0.74
  -5  -3  -1    1.48    0.74
   5  -3   2   30.09    4.04
   5  -3   2   28.23    3.65
   5  -3   2   32.54    4.14
   5  -3   2   32.16    4.34
   5   3   2   29.19    3.49
   5   3   2   28.06    3.83
  -5  -3  -2   26.75    3.00
   5  -3   3   19.39    2.79
   5  -3   3   19.91    3.19
   5  -3   3   16.36    3.16
   5  -3   3   19.57    3.26
   5   3   3   17.85    2.21
   5   3   3   18.94    3.24
  -5  -3  -3   15.35    2.40
   5  -3   4   23.28    2.71
   5  -3   4   19.69    3.06
   5  -3   4   22.67    3.49
   5  -3   4   23.99    3.72
   5   3   4   24.00    3.31
   5   3   4   21.95    3.49
  -5  -3  -4   22.72    2.82
   5  -3   5   -0.13    0.52
   5  -3   5    2.52    0.87
   5  -3   5    0.14    0.84
   5   3   5    2.40    0.84
   5   3   5    0.08    0.90
   5  -3   5    0.26    0.80
  -5  -3  -5    0.09    0.68
   5  -3   6    5.72    1.51
   5  -3   6    4.14    1.53
   5  -3   6    4.58    1.75
   5   3   6    5.41    1.66
   5   3   6    4.00    1.88
  -5  -3  -6    4.90    1.38
   5  -3   7    6.24    1.30
   5  -3   7    5.78    2.00
   5   3   7    7.69    1.95
   5   3   7    4.61    2.13
   5  -3   7    7.15    1.26
  -5   3  -7    5.30    3.15
  -5  -3  -7    5.52    1.21
   5  -3   8   77.00    7.92
   5  -3   8   62.05    6.52
   5  -3   8   73.43    7.82
   5   3   8   69.04    7.56
   5   3   8   54.06    6.43
   5   3   8   59.05    7.88
  -5   3  -8   67.04   11.37
  -5  -3  -8   66.20    6.35
   5  -3   9   27.97    3.50
   5  -3   9   24.74    3.94
   5   3   9   28.01    3.96
   5   3   9   17.50    3.23
   5   3   9   27.63    4.85
   5  -3   9   22.46    3.99
  -5   3  -9   24.12    5.87
  -5  -3  -9   20.91    2.59
   5  -3  10   55.45    5.64
   5  -3  10   55.41    5.54
   5   3  10   54.23    6.52
   5   3  10   46.29    6.02
   5   3  10   47.38    7.42
   5  -3  10   47.76    6.07
  -5   3 -10   46.71    8.31
  -5  -3 -10   46.13    5.49
   5  -3  11   12.76    2.47
   5  -3  11   11.78    2.59
   5   3  11   15.03    3.03
   5   3  11    9.61    2.52
   5   3  11   11.31    3.74
  -5   3 -11   10.20    2.50
  -5   3 -11   11.63    3.39
  -5  -3 -11   11.37    2.35
   5  -3  12    2.49    0.94
   5   3  12    0.62    1.10
   5   3  12   -0.02    1.09
   5   3  12   -0.17    1.58
   5  -3  12   -0.64    1.22
  -5   3 -12    0.58    1.34
  -5   3 -12    2.83    1.35
  -5  -3 -12    2.17    1.05
   5  -3  13    2.19    1.19
   5   3  13    2.43    1.41
   5   3  13    1.69    1.36
   5   3  13    2.81    2.07
   5  -3  14   23.38    3.30
   5   3  14   30.10    4.01
   5   3  14   18.69    3.75
   5   3  14   23.36    5.61
   5  -3  15    2.90    1.01
   5   3  15    2.12    1.24
   5   3  15    0.32    1.49
   5   3  15    0.14    2.10
   5  -3  16    0.07    0.67
   5   3  16    0.47    0.69
   5   3  16    0.09    0.90
   5   3  16    0.34    1.10
   5  -3  16    0.27    0.59
   5  -3  17   11.09    1.98
   5  -3  17    8.70    2.23
   5   3  17   10.87    2.15
   5   3  17   10.07    2.62
   5   3  17    8.78    3.48
   5  -3  18    4.82    1.76
   5   3  18    6.15    1.58
   5   3  18    5.35    2.00
   5   3  18    6.34    2.56
   5  -3  19   16.79    2.77
   5   3  19   16.43    2.42
   5   3  19   13.24    3.42
   5   3  19   16.69    3.93
   5  -3  20    1.44    1.11
   5   3  20    2.17    0.92
   5   3  20    1.10    1.42
   5   3  20    2.62    1.53
   5  -3  21    0.35    0.88
   5   3  21    1.67    0.75
   5   3  21    0.12    1.00
   5   3  21    1.26    1.10
   5  -3  22    2.32    1.01
   5   4 -22   45.50    4.13
   5   4 -22   42.11    5.16
  -5   4  22   39.52    5.25
   5  -4 -21    5.79    1.88
   5   4 -21    7.95    1.63
   5   4 -21    0.87    2.22
   5   4 -21    8.14    1.86
  -5   4  21    4.12    1.97
  -5   4  21    6.54    2.11
   5  -4 -20   18.43    3.56
   5   4 -20   22.04    3.21
   5   4 -20   21.68    3.67
  -5   4  20   16.72    3.82
  -5   4  20   18.94    3.98
   5  -4 -19    3.61    1.80
   5  -4 -19    2.77    1.32
   5   4 -19    3.17    1.40
   5   4 -19   -0.18    2.01
   5   4 -19    3.68    1.48
  -5   4  19    3.82    2.12
  -5   4  19    2.74    1.78
   5  -4 -18    4.01    2.02
   5  -4 -18    5.48    1.51
   5   4 -18    4.14    1.63
   5   4 -18    0.02    1.76
   5   4 -18    3.00    1.68
  -5   4  18    3.55    2.14
  -5   4  18    4.74    1.99
   5  -4 -17    3.71    1.92
   5  -4 -17    3.73    1.61
   5   4 -17    2.98    1.60
   5   4 -17    0.29    1.56
   5   4 -17    4.34    1.64
  -5   4  17    4.09    2.04
  -5   4  17    2.59    1.37
   5  -4 -16   39.16    6.66
   5  -4 -16   40.37    4.59
   5   4 -16   40.95    5.91
   5   4 -16   34.91    6.23
   5   4 -16   38.69    5.72
  -5   4  16   34.74    6.81
  -5   4  16   35.49    6.24
   5  -4 -15   22.88    4.93
   5  -4 -15   28.94    4.58
   5   4 -15   25.27    4.35
   5   4 -15   21.10    4.76
   5   4 -15   24.00    4.66
  -5   4  15   21.27    5.11
  -5   4  15   23.12    4.99
   5  -4 -14   25.23    4.99
   5  -4 -14   24.50    4.63
   5   4 -14   25.22    4.69
   5   4 -14   22.68    4.85
   5   4 -14   22.16    4.17
   5   4 -14   24.92    4.60
  -5   4  14   21.96    4.97
  -5   4  14   23.48    5.00
   5  -4 -13   27.85    5.18
   5  -4 -13   28.58    4.91
   5   4 -13   31.21    4.82
   5   4 -13   20.96    4.28
   5   4 -13   24.25    4.50
   5   4 -13   30.37    4.96
  -5   4  13   27.30    5.36
  -5   4  13   26.49    5.59
   5  -4 -12   15.74    4.17
   5  -4 -12   13.27    3.97
   5  -4 -12   15.25    3.61
   5   4 -12   19.64    3.55
   5   4 -12   13.57    3.39
   5   4 -12   13.74    3.55
   5   4 -12   18.15    3.54
  -5   4  12   14.11    3.91
  -5   4  12   15.82    3.77
   5  -4 -11    2.87    1.91
   5  -4 -11    3.97    1.93
   5   4 -11    3.39    1.83
   5   4 -11    5.02    1.68
   5   4 -11    1.18    1.87
   5   4 -11    2.57    1.76
   5  -4 -11    4.63    2.08
  -5   4  11    0.85    1.78
  -5   4  11    3.61    1.91
  -5  -4  11    2.48    1.61
   5  -4 -10   54.73    7.86
   5  -4 -10   55.75    7.56
   5  -4 -10   60.12    8.16
   5   4 -10   61.50    7.70
   5   4 -10   57.39    8.16
   5   4 -10   53.41    7.75
   5   4 -10   65.90    7.25
   5  -4 -10   53.87    4.82
  -5   4  10   50.86    7.60
  -5   4  10   53.80    7.73
  -5  -4  10   47.91    5.87
   5  -4  -9    3.29    1.34
   5  -4  -9    3.45    1.10
   5  -4  -9    5.45    1.83
   5  -4  -9    3.57    1.82
   5   4  -9    2.52    1.65
   5   4  -9    3.18    1.46
   5   4  -9    0.56    1.65
   5   4  -9    1.55    1.54
  -5   4   9    1.31    1.60
  -5   4   9    2.54    1.78
  -5  -4   9    2.77    1.25
   5  -4  -8  234.34   22.91
   5  -4  -8  257.89   21.19
   5  -4  -8  246.21   18.13
   5  -4  -8  245.47   21.96
   5  -4  -8  262.94   23.78
   5   4  -8  239.88   22.82
   5   4  -8  219.67   19.07
   5   4  -8  243.38   22.23
   5   4  -8  234.01   19.94
  -5   4   8  245.25   23.30
  -5  -4   8  199.86   17.60
   5  -4  -7   69.19    7.76
   5  -4  -7   60.42    6.12
   5  -4  -7   59.78    6.26
   5  -4  -7   63.91    8.16
   5   4  -7   58.83    7.82
   5   4  -7   56.92    7.16
   5   4  -7   62.41    6.46
   5  -4  -7   70.15    9.20
  -5   4   7   63.88    7.74
  -5  -4   7   58.36    6.30
   5  -4  -6  242.05   18.40
   5  -4  -6  261.18   24.88
   5  -4  -6  266.03   21.53
   5  -4  -6  232.16   19.65
   5  -4  -6  252.73   22.21
   5   4  -6  240.37   21.51
   5   4  -6  244.07   20.72
   5   4  -6  241.96   19.68
  -5   4   6  255.31   22.37
  -5  -4   6  209.77   17.21
   5  -4  -5   18.57    3.21
   5  -4  -5   18.74    3.33
   5  -4  -5   16.85    2.79
   5  -4  -5   15.53    2.50
   5  -4  -5   20.04    3.76
   5   4  -5   19.30    3.53
   5   4  -5   16.72    3.23
   5   4  -5   16.69    2.92
   5   4  -5   16.92    2.69
  -5   4   5   19.14    3.17
  -5  -4   5   14.93    2.52
   5  -4  -4  121.10   10.19
   5  -4  -4  125.03   11.94
   5   4  -4  110.78   11.10
   5   4  -4  121.13    9.99
   5   4  -4  114.66   10.97
   5   4  -4  107.71    9.25
   5  -4  -4  112.91   10.74
   5  -4  -4  126.78   11.53
  -5   4   4  121.28   11.12
  -5  -4   4   91.30    8.47
   5  -4  -3    8.67    1.51
   5  -4  -3    2.79    1.39
   5  -4  -3    4.21    1.54
   5   4  -3    2.83    1.31
   5   4  -3    0.47    1.39
   5   4  -3    2.42    1.21
   5  -4  -3    0.61    1.18
  -5   4   3    0.28    1.27
  -5  -4   3    1.87    0.95
   5  -4  -2   64.90    7.31
   5  -4  -2   62.97    5.44
   5  -4  -2   65.00    7.17
   5  -4  -2   68.50    7.59
   5   4  -2   63.96    6.79
   5   4  -2   64.32    7.07
   5   4  -2   64.84    6.67
   5  -4  -1   23.69    3.04
   5  -4  -1   20.16    3.56
   5  -4  -1   21.58    2.80
   5  -4  -1   22.08    3.74
   5   4  -1   17.44    2.94
   5   4  -1   21.18    3.70
   5   4  -1   19.52    3.23
   5  -4   0   45.83    5.06
   5  -4   0   48.49    4.69
   5  -4   0   45.58    4.73
   5  -4   0   49.43    5.79
   5   4   0   43.06    4.89
   5   4   0   50.64    4.57
   5   4   0   41.28    5.44
   5   4   0   47.71    5.31
  -5  -4   0   44.18    4.09
   5  -4   1    7.29    1.95
   5  -4   1    8.11    1.78
   5  -4   1    6.35    1.93
   5   4   1    5.63    1.69
   5   4   1    6.00    1.47
   5   4   1    3.98    1.89
   5   4   1    4.54    1.82
   5  -4   1    5.13    1.81
  -5  -4  -1    5.08    1.30
   5  -4   2  142.75   11.57
   5  -4   2  135.10   10.85
   5  -4   2  142.02   12.34
   5  -4   2  131.92   12.13
   5   4   2  126.84   11.50
   5   4   2  143.78   11.22
   5   4   2  131.75   11.99
   5   4   2  132.05   12.43
  -5  -4  -2  125.96    9.86
   5  -4   3   11.69    2.34
   5  -4   3   12.77    2.31
   5  -4   3    9.45    2.51
   5  -4   3    9.19    2.80
   5   4   3    9.42    2.55
   5   4   3   10.20    2.16
   5   4   3    6.49    2.36
   5   4   3   12.09    2.52
  -5  -4  -3   10.84    1.93
   5  -4   4   75.10    7.58
   5  -4   4   75.34    7.28
   5  -4   4   75.30    7.36
   5  -4   4   77.26    7.59
   5   4   4   65.46    7.77
   5   4   4   80.74    7.64
   5   4   4   68.27    8.07
   5   4   4   72.17    8.17
  -5  -4  -4   71.34    5.80
   5  -4   5  166.48   12.42
   5  -4   5  154.22   13.54
   5  -4   5  163.42   12.82
   5   4   5  170.24   14.16
   5   4   5  153.22   15.79
   5   4   5  154.05   14.72
   5   4   5  155.46   14.78
   5  -4   5  170.82   14.44
  -5  -4  -5  152.52   12.39
   5  -4   6    2.87    1.27
   5  -4   6    3.44    1.08
   5  -4   6    3.18    1.45
   5   4   6    3.41    1.41
   5   4   6    0.67    1.38
   5   4   6    3.46    1.62
  -5   4  -6    3.24    2.42
  -5  -4  -6    2.01    1.19
   5  -4   7   51.95    4.56
   5  -4   7   56.75    6.28
   5  -4   7   48.52    5.66
   5   4   7   51.75    6.04
   5   4   7   42.73    6.38
   5   4   7   44.30    6.67
  -5   4  -7   52.03    7.91
  -5  -4  -7   48.05    5.36
   5  -4   8   63.98    7.01
   5  -4   8   80.77    8.62
   5   4   8   73.10    7.79
   5   4   8   58.64    7.84
   5   4   8   64.16    8.53
   5  -4   8   75.03    6.95
  -5   4  -8   66.30   11.63
  -5  -4  -8   63.63    6.68
   5  -4   9    2.02    1.21
   5  -4   9    4.76    1.61
   5   4   9    2.85    1.56
   5   4   9    0.48    1.97
   5   4   9    4.41    1.86
   5  -4   9    2.64    1.68
  -5   4  -9    5.27    2.58
  -5  -4  -9    1.39    1.35
   5  -4  10   17.10    2.73
   5  -4  10   19.55    3.66
   5   4  10   17.33    2.60
   5   4  10    9.72    3.35
   5   4  10   14.22    3.05
   5   4  10   13.20    4.15
   5  -4  10   18.55    3.42
  -5   4 -10   19.16    4.75
  -5  -4 -10   16.76    3.31
   5  -4  11   79.38    7.33
   5   4  11   84.00    8.90
   5   4  11   62.64    9.07
   5   4  11   69.21    8.62
   5   4  11   73.83   10.28
  -5   4 -11   69.47    9.76
   5  -4  12    3.08    1.19
   5   4  12    3.80    1.55
   5   4  12    0.36    1.52
   5   4  12    0.70    1.37
   5   4  12    1.45    1.96
  -5   4 -12    3.48    1.69
   5  -4  13    7.89    1.66
   5   4  13    7.72    2.21
   5   4  13    0.55    2.21
   5   4  13    3.68    2.09
   5   4  13    7.15    3.19
  -5   4 -13    9.00    2.44
   5  -4  14   25.47    3.01
   5   4  14   28.90    3.73
   5   4  14    0.02    3.72
   5   4  14   20.01    3.79
   5   4  14   22.25    5.30
  -5   4 -14   22.41    4.33
   5  -4  15    0.17    0.73
   5   4  15    0.61    0.91
   5   4  15    0.15    1.05
   5   4  15    3.36    1.39
   5  -4  16    4.75    1.39
   5   4  16    6.53    1.60
   5   4  16    2.47    1.96
   5   4  16    5.67    2.72
   5  -4  17    8.24    1.91
   5   4  17    7.10    1.85
   5   4  17    5.59    2.25
   5   4  17    8.66    2.95
   5  -4  18   15.24    2.59
   5   4  18   14.43    2.48
   5   4  18   11.14    2.91
   5   4  18   18.02    3.72
   5  -4  19    0.52    1.04
   5   4  19    2.98    0.91
   5   4  19    0.03    1.19
   5   4  19    3.18    1.46
   5  -4  20   50.03    5.00
   5   4  20   48.39    4.55
   5   4  20   49.34    6.51
   5  -4  21    0.00    0.65
   5   4  21   -0.01    0.70
   5   4  21    2.24    0.88
   5   5 -21   62.18    5.26
   5   5 -21   65.80    6.18
  -5   5  21   54.81    6.64
  -5   5  21   43.01    6.06
   5   5 -20    0.75    0.66
   5   5 -20    0.10    0.76
   5  -5 -20    0.07    0.69
  -5   5  20    0.18    0.90
  -5   5  20    0.40    0.91
   5  -5 -19   14.53    3.09
   5   5 -19   15.75    2.71
   5   5 -19   17.08    3.07
  -5   5  19   16.34    3.67
  -5   5  19   16.46    3.59
   5  -5 -18    3.09    1.99
   5   5 -18    3.79    1.86
   5   5 -18    6.71    1.77
  -5   5  18    5.26    2.44
  -5   5  18    5.94    2.31
   5  -5 -17    0.77    1.54
   5  -5 -17    2.51    1.26
   5   5 -17    2.46    1.36
   5   5 -17    3.11    1.39
  -5   5  17    1.23    1.64
  -5   5  17    1.91    1.64
   5  -5 -16    1.03    1.51
   5  -5 -16    2.90    1.32
   5   5 -16    3.20    1.50
   5   5 -16    0.94    1.36
  -5   5  16    1.37    1.76
  -5   5  16    1.89    1.68
   5  -5 -15    6.97    2.07
   5   5 -15    6.63    2.44
   5   5 -15    6.25    2.25
   5   5 -15    5.56    2.29
   5  -5 -15    6.46    2.44
  -5   5  15    5.42    2.61
  -5   5  15    9.53    2.86
   5  -5 -14    0.40    1.80
   5  -5 -14    5.95    1.54
   5   5 -14    2.12    1.56
   5   5 -14    0.49    1.56
   5   5 -14    1.15    1.61
  -5   5  14    3.60    1.90
  -5   5  14    1.24    1.83
   5  -5 -13   42.20    6.76
   5  -5 -13   40.36    5.90
   5   5 -13   41.41    6.05
   5   5 -13   41.71    6.23
   5   5 -13   45.04    6.20
  -5   5  13   40.37    7.24
  -5   5  13   42.17    7.03
   5  -5 -12    4.63    2.41
   5  -5 -12    7.09    2.19
   5   5 -12    6.26    2.35
   5   5 -12    4.80    2.41
   5   5 -12    5.54    2.21
  -5   5  12    6.55    2.68
  -5   5  12    3.18    2.54
   5  -5 -11   15.52    2.66
   5  -5 -11   15.78    3.64
   5   5 -11   16.68    3.85
   5   5 -11   12.88    3.95
   5   5 -11   20.31    3.47
   5  -5 -11   17.06    3.84
  -5   5  11   15.02    4.17
  -5   5  11   16.84    4.09
   5  -5 -10   66.87    6.03
   5  -5 -10   65.54    8.44
   5  -5 -10   69.63    8.47
   5   5 -10   62.78    6.86
   5   5 -10   60.38    8.64
   5   5 -10   64.47    7.43
   5  -5 -10   70.96   10.34
  -5   5  10   65.13    9.11
  -5   5  10   62.66    9.00
  -5  -5  10   57.33    6.89
   5  -5  -9  150.64   11.89
   5  -5  -9  154.22   15.48
   5  -5  -9  157.39   15.65
   5  -5  -9  163.92   16.98
   5   5  -9  150.36   15.35
   5   5  -9  154.51   15.88
   5   5  -9  156.42   12.98
   5   5  -9  151.33   13.99
   5  -5  -9  174.81   19.17
  -5   5   9  158.47   16.20
  -5   5   9  160.40   17.21
  -5  -5   9  135.65   12.88
   5  -5  -8   32.90    4.00
   5  -5  -8   27.54    4.70
   5  -5  -8   32.86    5.26
   5   5  -8   30.24    5.01
   5   5  -8   27.21    5.26
   5   5  -8   30.35    3.99
   5   5  -8   27.80    4.09
   5  -5  -8   31.83    6.13
   5  -5  -8   29.58    5.65
  -5   5   8   29.82    5.43
  -5  -5   8   26.25    4.00
   5  -5  -7    3.20    1.70
   5  -5  -7    0.76    1.49
   5  -5  -7    0.67    1.72
   5   5  -7    1.11    1.50
   5   5  -7    2.96    1.76
   5   5  -7    3.27    1.25
   5   5  -7    3.22    1.19
   5  -5  -7    3.42    1.19
  -5   5   7    0.67    1.60
  -5  -5   7    2.05    1.22
   5  -5  -6    5.99    1.72
   5  -5  -6    7.02    2.41
   5  -5  -6    5.81    1.54
   5  -5  -6    6.43    2.36
   5   5  -6    8.53    2.18
   5   5  -6    4.80    2.12
   5   5  -6    4.85    1.66
   5   5  -6    6.67    1.69
  -5   5   6    5.04    2.13
  -5  -5   6    4.67    1.74
   5  -5  -5   23.85    3.65
   5  -5  -5   29.74    3.67
   5  -5  -5   31.08    4.64
   5   5  -5   22.85    4.12
   5   5  -5   22.82    4.49
   5   5  -5   25.46    3.64
   5  -5  -5   23.63    3.40
  -5   5   5   26.04    4.35
  -5  -5   5   20.58    3.29
   5  -5  -4    1.35    1.22
   5  -5  -4    2.52    1.02
   5  -5  -4    0.49    1.19
   5   5  -4    0.91    1.06
   5   5  -4    0.57    1.18
   5   5  -4    0.93    0.92
  -5   5   4    0.61    1.05
  -5  -5   4    0.12    0.81
   5  -5  -3    9.01    2.51
   5  -5  -3    6.42    1.91
   5  -5  -3    7.08    2.17
   5  -5  -3    9.39    2.51
   5   5  -3    7.01    2.05
   5   5  -3    5.75    2.42
   5   5  -3    8.72    1.95
  -5   5   3    5.89    2.11
  -5  -5   3    6.14    1.67
   5  -5  -2   93.24    9.99
   5  -5  -2   95.09    8.66
   5  -5  -2   87.00    8.35
   5  -5  -2   94.23   10.02
   5   5  -2   76.56    8.11
   5   5  -2   77.78    8.65
   5   5  -2   84.33    9.14
   5   5  -2   88.48    8.76
   5  -5  -1   85.50    7.16
   5  -5  -1   83.53    8.36
   5  -5  -1   92.37    9.46
   5   5  -1   71.58    7.92
   5   5  -1   80.79    8.98
   5   5  -1   79.74    8.46
   5  -5  -1   85.21    9.27
   5  -5   0   22.62    3.12
   5  -5   0   20.08    3.21
   5  -5   0   22.46    3.82
   5   5   0   16.59    3.41
   5   5   0   17.05    3.50
   5   5   0   18.81    3.34
   5  -5   0   19.29    3.89
   5  -5   1    0.61    1.04
   5  -5   1    0.45    0.84
   5  -5   1   -0.32    0.80
   5  -5   1    1.14    0.90
   5   5   1    1.06    0.92
   5   5   1    0.52    0.65
   5   5   1    0.23    0.89
   5   5   1    0.88    0.90
   5  -5   2   28.51    3.92
   5  -5   2   30.23    3.83
   5  -5   2   30.49    4.17
   5   5   2   24.76    4.17
   5   5   2   23.57    4.47
   5   5   2   28.85    3.51
   5   5   2   24.70    4.14
   5  -5   2   28.47    4.50
  -5  -5  -2   29.53    3.74
   5  -5   3    4.38    1.70
   5  -5   3    5.63    1.59
   5  -5   3    5.24    1.63
   5  -5   3    3.60    1.91
   5   5   3    5.81    2.01
   5   5   3    4.67    1.44
   5   5   3    3.13    1.77
   5   5   3    6.23    1.87
  -5  -5  -3    4.22    1.47
   5  -5   4   23.86    3.50
   5  -5   4   25.51    3.67
   5   5   4   23.59    4.37
   5   5   4   23.29    3.38
   5   5   4   17.39    3.71
   5   5   4   21.70    4.03
   5  -5   4   25.11    3.26
  -5  -5  -4   19.57    3.30
   5  -5   5    5.29    1.61
   5  -5   5    6.54    1.74
   5  -5   5    6.47    1.76
   5   5   5    6.88    1.75
   5   5   5    5.14    2.22
   5   5   5    2.46    1.80
   5   5   5    3.44    2.07
  -5   5  -5    3.44    3.28
  -5  -5  -5    4.13    1.61
   5  -5   6   23.65    2.99
   5  -5   6   21.33    2.71
   5  -5   6   19.26    3.44
   5   5   6   21.16    2.71
   5   5   6   17.90    4.45
   5   5   6   14.19    2.83
   5   5   6   19.88    4.15
  -5   5  -6   21.10    6.60
  -5  -5  -6   18.78    3.23
   5  -5   7   20.09    3.22
   5  -5   7   17.63    3.24
   5   5   7   17.59    3.27
   5   5   7   14.67    4.13
   5   5   7   14.25    3.42
   5   5   7   15.53    3.88
   5  -5   7   16.69    2.28
  -5   5  -7   16.73    5.85
  -5  -5  -7   16.09    2.89
   5  -5   8   13.56    2.39
   5  -5   8   11.78    1.85
   5  -5   8   14.89    2.82
   5   5   8   16.03    2.79
   5   5   8    8.22    3.77
   5   5   8    7.18    3.06
   5   5   8   10.30    3.26
  -5   5  -8   13.27    4.67
  -5  -5  -8   10.20    2.40
   5  -5   9    6.28    1.47
   5  -5   9    9.42    2.10
   5   5   9    5.08    2.17
   5   5   9    2.83    2.37
   5   5   9    7.15    2.54
   5  -5   9    6.32    1.26
  -5   5  -9    6.92    3.26
  -5  -5  -9    6.66    1.88
   5  -5  10   15.85    2.46
   5   5  10   13.09    3.15
   5   5  10    6.12    3.28
   5   5  10   12.57    3.66
  -5   5 -10   13.64    4.01
   5  -5  11   11.52    2.31
   5   5  11   14.38    2.85
   5   5  11    8.54    3.34
   5   5  11   10.56    3.70
  -5   5 -11   13.18    3.78
   5  -5  12    3.12    1.28
   5   5  12    5.14    1.62
   5   5  12    0.48    2.49
   5   5  12   -0.03    1.60
   5   5  12    5.32    2.23
  -5   5 -12    5.77    2.02
   5  -5  13   22.21    2.84
   5   5  13   19.46    3.52
   5   5  13   10.53    4.14
   5   5  13   17.21    4.88
  -5   5 -13   21.39    4.12
   5  -5  14    2.16    0.91
   5   5  14    2.61    1.19
   5   5  14   -0.03    1.42
   5   5  14   -0.06    1.24
   5   5  14    0.50    1.64
  -5   5 -14    1.11    1.34
   5  -5  15   14.24    1.92
   5   5  15   15.42    2.43
   5   5  15    0.20    2.60
   5   5  15    0.13    2.32
   5   5  15   12.10    3.39
  -5   5 -15   12.89    2.74
   5   5  16   14.21    1.98
   5   5  16    0.43    2.37
   5   5  16    0.12    2.08
   5   5  16   11.87    3.05
  -5   5 -16   13.86    2.92
   5  -5  17    9.33    1.46
   5   5  17   10.50    1.87
   5   5  17    0.03    1.99
   5   5  17    7.47    2.71
   5  -5  18   28.91    3.47
   5   5  18   29.59    3.50
   5   5  18   26.74    4.90
   5  -5  19    3.31    1.33
   5   5  19    6.21    1.35
   5   5  19    4.44    2.02
   5  -5  20    4.45    1.25
   5   5  20    4.76    1.81
   5   6 -20   -0.19    0.60
   5   6 -20   -0.23    0.73
  -5   6  20    2.41    0.85
   5   6 -19    3.41    0.93
   5   6 -19    0.49    1.10
  -5   6  19    0.10    1.26
  -5   6  19   -0.01    1.37
   5   6 -18    4.13    1.50
   5   6 -18    4.01    1.58
  -5   6  18    2.87    1.82
  -5   6  18    3.08    1.89
   5   6 -17   54.07    6.47
   5   6 -17   53.82    6.25
  -5   6  17   52.12    7.45
  -5   6  17   44.76    7.49
   5   6 -16    9.61    2.20
   5   6 -16    6.72    2.06
   5  -6 -16    5.80    2.34
  -5   6  16    5.11    2.53
  -5   6  16    5.39    2.89
   5  -6 -15   46.11    7.54
   5  -6 -15   51.09    6.10
   5   6 -15   47.42    6.42
   5   6 -15   49.98    6.20
   5   6 -15   46.67    6.01
  -5   6  15   44.43    7.14
  -5   6  15   46.22    7.78
   5  -6 -14   30.43    4.63
   5   6 -14   30.03    4.71
   5   6 -14   26.99    4.84
   5   6 -14   27.34    4.53
   5  -6 -14   28.66    4.71
  -5   6  14   28.27    5.66
  -5   6  14   29.72    5.78
   5  -6 -13   14.25    3.58
   5  -6 -13   14.14    3.06
   5   6 -13   17.52    3.33
   5   6 -13   14.08    3.69
   5   6 -13   11.53    3.27
  -5   6  13   11.95    3.92
  -5   6  13   15.01    4.16
   5  -6 -12   -0.16    1.01
   5  -6 -12    0.55    1.37
   5  -6 -12    2.55    0.92
   5   6 -12    2.00    1.38
   5   6 -12    0.25    1.44
   5   6 -12    1.76    1.31
  -5   6  12    3.34    1.72
  -5   6  12    0.16    1.65
   5  -6 -11   51.19    4.99
   5  -6 -11   50.88    6.95
   5  -6 -11   52.59    7.07
   5   6 -11   48.75    7.17
   5   6 -11   47.56    7.20
   5   6 -11   55.53    6.62
  -5   6  11   45.16    7.10
  -5   6  11   47.40    8.21
   5  -6 -10    0.57    1.49
   5  -6 -10    1.32    1.47
   5   6 -10    2.17    1.06
   5   6 -10    0.06    1.62
   5   6 -10    0.51    1.25
   5   6 -10    2.90    1.28
   5  -6 -10    2.22    0.72
  -5   6  10    2.88    1.51
  -5   6  10    1.99    1.79
   5  -6  -9   14.90    3.15
   5  -6  -9   13.64    2.46
   5  -6  -9   15.02    3.36
   5   6  -9   12.02    3.12
   5   6  -9   13.21    3.30
   5   6  -9   11.10    2.55
   5   6  -9   11.41    2.80
  -5   6   9   11.43    3.29
  -5   6   9   14.42    2.93
   5  -6  -8  150.30   12.83
   5  -6  -8  145.13   14.00
   5  -6  -8  155.31   15.48
   5   6  -8  128.75   13.80
   5   6  -8  140.33   14.59
   5   6  -8  148.05   12.81
   5   6  -8  141.10   12.62
  -5   6   8  125.13   13.95
  -5   6   8  138.49   16.23
   5  -6  -7    3.93    1.91
   5  -6  -7    7.28    2.37
   5  -6  -7    7.85    2.24
   5  -6  -7    7.12    1.89
   5   6  -7    5.98    2.27
   5   6  -7    6.04    2.24
   5   6  -7    6.23    1.85
  -5   6   7    5.45    2.53
  -5  -6   7    4.57    2.07
   5  -6  -6  160.87   14.11
   5  -6  -6  144.51   14.85
   5  -6  -6  166.96   14.30
   5  -6  -6  181.23   15.49
   5   6  -6  138.24   13.10
   5   6  -6  154.27   15.38
   5   6  -6  153.94   13.64
  -5   6   6  160.32   16.54
  -5  -6   6  143.29   13.72
   5  -6  -5  103.00    9.57
   5  -6  -5  103.81   10.30
   5  -6  -5  101.89   11.58
   5  -6  -5  118.31   12.25
   5   6  -5   86.56   10.10
   5   6  -5   98.28   10.95
   5   6  -5  101.66    9.85
  -5   6   5  105.53   11.08
  -5  -6   5   81.01    8.80
   5  -6  -4   64.86    7.67
   5  -6  -4   55.54    6.32
   5  -6  -4   56.01    6.28
   5  -6  -4   63.79    7.27
   5   6  -4   53.91    7.22
   5   6  -4   55.68    7.12
   5   6  -4   57.38    6.53
  -5   6   4   58.27    7.32
  -5  -6   4   46.02    5.65
   5  -6  -3   21.03    3.68
   5  -6  -3   20.49    4.27
   5  -6  -3   21.21    3.48
   5  -6  -3   25.74    3.95
   5   6  -3   21.26    4.12
   5   6  -3   20.88    4.16
   5   6  -3   21.44    3.60
  -5   6   3   17.40    3.58
  -5  -6   3   18.15    3.02
   5  -6  -2  177.77   15.68
   5  -6  -2  182.84   17.19
   5  -6  -2  175.96   15.39
   5  -6  -2  190.08   17.10
   5   6  -2  150.53   15.18
   5   6  -2  166.68   16.82
   5   6  -2  182.10   17.04
   5   6  -2  168.05   15.85
   5  -6  -1    2.34    1.42
   5  -6  -1    2.81    1.32
   5  -6  -1    3.06    1.58
   5   6  -1    2.19    1.06
   5   6  -1    2.95    1.48
   5   6  -1    0.80    1.62
   5   6  -1    2.21    1.50
   5  -6  -1    2.18    1.77
   5  -6   0  161.26   15.70
   5  -6   0  167.88   14.63
   5  -6   0  159.73   13.68
   5  -6   0  173.13   16.10
   5   6   0  139.83   15.10
   5   6   0  153.97   15.03
   5   6   0  150.09   14.42
   5  -6   1  108.98   10.09
   5  -6   1  112.35   10.45
   5  -6   1  109.91   10.37
   5  -6   1  120.73   11.66
   5   6   1   94.66   11.02
   5   6   1  102.09   11.11
   5   6   1  108.59   11.10
   5  -6   2   41.55    4.59
   5  -6   2   43.02    5.28
   5  -6   2   41.79    5.02
   5  -6   2   47.02    6.05
   5   6   2   35.80    4.76
   5   6   2   46.25    4.48
   5   6   2   41.52    5.98
   5   6   2   38.04    5.67
   5  -6   3   80.36    7.38
   5  -6   3   86.82    8.25
   5  -6   3   86.81    8.29
   5   6   3   70.51    9.03
   5   6   3   82.70    7.60
   5   6   3   76.96    9.38
   5   6   3   73.86    8.88
  -5   6  -3   79.94   14.55
   5  -6   4    2.99    1.49
   5  -6   4    4.04    1.45
   5   6   4    3.60    1.88
   5   6   4    2.12    1.27
   5   6   4    0.80    1.70
   5   6   4    2.03    1.66
   5  -6   4    3.67    1.33
  -5   6  -4    1.45    2.81
  -5  -6  -4    2.75    1.36
   5  -6   5    8.77    1.96
   5  -6   5    7.12    1.54
   5  -6   5    8.95    2.22
   5   6   5    7.04    1.86
   5   6   5    4.36    2.63
   5   6   5    5.16    2.31
   5   6   5    5.20    2.35
  -5   6  -5    9.94    4.10
  -5  -6  -5    6.15    1.99
   5  -6   6    3.03    1.02
   5  -6   6    3.94    1.21
   5  -6   6    3.65    1.44
   5   6   6    2.71    1.30
   5   6   6    3.03    1.96
   5   6   6    1.27    1.60
   5   6   6    0.33    1.63
  -5   6  -6    1.49    2.84
  -5  -6  -6    1.31    1.34
   5  -6   7    0.20    0.61
   5  -6   7    1.55    0.67
   5   6   7    0.37    0.93
   5   6   7    0.29    1.06
   5   6   7   -0.13    0.81
  -5   6  -7    5.06    1.73
   5  -6   8   80.23    8.29
   5   6   8   73.67    8.10
   5   6   8   63.41    9.05
   5   6   8   77.23   10.31
   5  -6   8   84.57    7.72
  -5   6  -8   80.93   12.74
   5  -6   9    6.01    1.68
   5   6   9    5.58    2.00
   5   6   9    3.68    2.31
   5   6   9    4.85    2.85
  -5   6  -9   10.74    3.21
   5  -6  10   40.70    4.36
   5   6  10   36.17    5.24
   5   6  10   24.90    5.39
   5   6  10   34.88    6.59
  -5   6 -10   38.02    7.13
   5  -6  11   20.49    2.73
   5   6  11   20.26    3.58
   5   6  11   13.35    3.74
   5   6  11   17.96    4.73
  -5   6 -11   18.32    4.51
   5   6  12   18.29    3.49
   5   6  12   11.98    3.86
   5   6  12   14.22    4.53
   5  -6  12   20.82    2.71
  -5   6 -12   19.21    4.24
   5  -6  13    3.27    1.21
   5   6  13    5.30    1.57
   5   6  13    0.71    1.86
   5   6  13    3.18    2.25
  -5   6 -13    3.34    1.43
   5  -6  14    2.73    0.90
   5   6  14    0.48    0.77
   5   6  14    0.20    1.34
   5   6  14    0.48    1.58
  -5   6 -14    1.23    1.28
   5   6  15    6.75    1.39
   5   6  15    0.40    2.04
   5   6  15    0.62    1.97
  -5   6 -15    0.93    1.60
   5   6  16    2.57    1.11
   5   6  16    0.69    1.42
   5   6  16   -0.44    1.64
  -5   6 -16    3.19    1.32
   5  -6  17    0.16    0.70
   5   6  17    2.37    0.86
   5   6  17    0.45    0.99
   5   6  17    0.59    1.21
  -5   6 -17    0.31    0.94
   5  -6  18    9.45    1.79
   5   6  18   11.17    2.87
   5  -6  19   12.22    1.91
   5   6  19   15.01    2.81
   5   7 -19   12.77    1.88
  -5   7  19   12.13    2.50
   5   7 -18    5.23    1.30
   5   7 -18   -0.05    1.25
  -5   7  18    5.76    2.17
  -5   7  18    5.88    1.75
   5   7 -17    0.49    0.89
   5   7 -17   -0.02    0.86
  -5   7  17    3.63    1.13
  -5   7  17    0.11    1.10
   5   7 -16    1.39    0.88
   5   7 -16    0.17    0.88
  -5   7  16    0.15    1.10
  -5   7  16    0.50    1.15
   5   7 -15   17.51    2.62
   5   7 -15   13.34    2.81
   5   7 -15   -0.35    2.24
  -5   7  15   13.21    3.11
  -5   7  15   15.68    3.33
   5   7 -14    7.28    2.15
   5   7 -14   10.27    2.37
   5   7 -14    0.58    1.70
  -5   7  14    8.38    2.48
  -5   7  14   10.63    2.76
   5  -7 -13   -0.06    0.52
   5  -7 -13    0.65    0.72
   5   7 -13   -0.48    0.85
   5   7 -13    2.61    0.88
   5   7 -13   -0.38    0.74
  -5   7  13   -0.04    0.93
  -5   7  13    0.60    1.06
  -5  -7  13    0.00    0.58
   5  -7 -12   -0.10    0.72
   5  -7 -12    0.24    1.17
   5  -7 -12    1.67    0.94
   5   7 -12    2.82    1.09
   5   7 -12    0.18    0.86
   5   7 -12    0.60    1.01
  -5   7  12    0.42    1.27
  -5   7  12    2.05    1.45
  -5  -7  12    0.90    0.77
   5  -7 -11    3.44    1.30
   5  -7 -11    3.73    1.90
   5  -7 -11    4.92    1.60
   5   7 -11    4.25    1.33
   5   7 -11    8.33    2.23
   5   7 -11    0.13    1.41
   5   7 -11    3.68    1.64
  -5   7  11    4.28    2.10
  -5   7  11    4.90    2.39
   5  -7 -10    2.32    0.83
   5  -7 -10    0.40    1.02
   5  -7 -10    0.11    0.93
   5   7 -10    1.31    1.10
   5   7 -10   -0.11    1.21
   5   7 -10    0.22    0.93
  -5   7  10   -0.18    1.14
  -5   7  10    0.20    1.35
   5  -7  -9    6.24    2.07
   5  -7  -9    8.53    2.01
   5   7  -9    5.71    2.28
   5   7  -9    4.38    2.56
   5   7  -9    7.76    1.87
   5  -7  -9    4.18    1.78
  -5   7   9    3.34    2.26
  -5   7   9    4.64    2.67
   5  -7  -8    0.04    0.75
   5  -7  -8    0.23    1.06
   5   7  -8    0.37    1.23
   5   7  -8    0.38    1.43
   5   7  -8    2.19    1.06
   5  -7  -8   -0.15    1.16
  -5   7   8    4.87    1.32
  -5   7   8    3.79    1.45
   5  -7  -7    4.28    1.54
   5  -7  -7    4.45    1.72
   5  -7  -7    4.12    1.64
   5   7  -7    2.16    1.76
   5   7  -7    3.70    1.96
   5   7  -7    3.17    1.53
  -5   7   7    2.72    1.71
  -5   7   7    4.12    2.02
   5  -7  -6   46.76    5.56
   5  -7  -6   48.37    5.80
   5  -7  -6   50.29    6.00
   5   7  -6   39.09    5.91
   5   7  -6   43.59    6.72
   5   7  -6   42.36    5.55
  -5   7   6   44.74    6.65
   5  -7  -5   27.42    3.44
   5  -7  -5   30.11    4.16
   5  -7  -5   31.60    4.64
   5   7  -5   27.80    4.91
   5   7  -5   29.07    4.85
   5   7  -5   26.97    4.34
  -5   7   5   27.03    4.82
   5  -7  -4    1.06    1.09
   5   7  -4    0.11    1.34
   5   7  -4    3.06    1.41
   5   7  -4    0.74    1.17
   5  -7  -4    0.26    1.15
   5  -7  -4    4.94    1.29
  -5   7   4    0.12    1.31
   5  -7  -3  105.06   10.28
   5  -7  -3  112.46   10.22
   5  -7  -3  108.58   10.51
   5   7  -3   89.00   10.59
   5   7  -3   95.81   10.92
   5   7  -3   94.86   10.26
   5  -7  -2   17.03    2.81
   5  -7  -2   15.01    3.31
   5   7  -2   14.66    3.28
   5   7  -2   13.94    2.47
   5   7  -2   14.91    3.08
   5  -7  -2   12.51    3.04
   5  -7  -1   46.09    5.51
   5  -7  -1   40.80    4.99
   5  -7  -1   40.99    5.50
   5   7  -1   38.04    5.72
   5   7  -1   37.37    5.87
   5   7  -1   40.62    5.47
   5  -7   0   24.94    3.81
   5  -7   0   22.93    3.44
   5   7   0   22.09    4.23
   5   7   0   23.99    3.99
  -5   7   0   24.61    7.39
   5  -7   1    7.65    2.00
   5   7   1    8.52    2.36
   5   7   1    3.83    2.38
   5  -7   1    8.33    1.93
  -5   7  -1   10.19    4.58
   5  -7   2   14.59    2.81
   5  -7   2   15.19    2.10
   5   7   2   12.15    3.17
   5   7   2   13.38    3.39
  -5   7  -2   20.56    6.08
   5  -7   3   20.44    3.25
   5   7   3   17.36    2.79
   5   7   3   17.17    3.62
   5   7   3   16.83    3.67
   5  -7   3   21.19    3.18
  -5   7  -3   20.03    7.30
   5  -7   4   -0.02    0.92
   5  -7   4    0.21    0.90
   5   7   4    2.28    0.81
   5   7   4    0.03    1.14
   5   7   4    0.41    1.16
  -5   7  -4   -1.17    2.14
   5  -7   5    8.80    1.98
   5  -7   5    7.33    1.96
   5   7   5    6.45    1.87
   5   7   5    4.96    2.46
   5   7   5    6.54    2.57
  -5   7  -5    7.84    4.15
   5  -7   6    2.98    1.00
   5  -7   6    2.93    1.43
   5   7   6    3.71    1.40
   5   7   6    2.05    1.16
   5   7   6    4.61    1.93
  -5   7  -6    5.68    3.13
   5  -7   7    2.09    1.06
   5   7   7    2.62    1.15
   5   7   7    1.21    1.34
   5   7   7    2.25    1.55
   5  -7   7   -0.20    1.01
  -5   7  -7    2.22    2.16
   5  -7   8    2.66    0.97
   5  -7   8    2.53    1.03
   5   7   8    0.74    1.14
   5   7   8    0.19    1.43
   5   7   8    0.75    1.18
  -5   7  -8    0.80    1.90
   5  -7   9    5.53    1.29
   5   7   9    5.17    1.54
   5   7   9    0.66    1.36
   5   7   9    3.63    2.25
   5  -7   9    2.58    1.28
  -5   7  -9    4.30    2.41
   5  -7  10    3.08    1.18
   5   7  10    3.40    1.52
   5   7  10    1.16    1.88
   5   7  10    3.03    2.02
  -5   7 -10    5.17    2.04
   5  -7  11    0.05    0.66
   5   7  11    0.17    0.81
   5   7  11   -0.03    1.07
   5   7  11    0.49    1.16
  -5   7 -11    2.86    1.15
   5  -7  12   10.84    1.89
   5   7  12    9.23    2.24
   5   7  12    6.19    2.68
   5   7  12    8.66    2.21
  -5   7 -12   10.05    3.09
   5  -7  13    4.43    1.28
   5   7  13    4.91    1.71
   5   7  13    1.54    1.87
   5   7  13    3.58    2.15
  -5   7 -13    5.52    1.91
   5   7  14    0.27    0.92
   5   7  14    0.01    1.07
   5   7  14   -0.18    1.26
  -5   7 -14    3.49    1.13
   5   7  15    0.67    1.05
   5   7  15    0.01    1.10
   5   7  15    0.95    1.32
  -5   7 -15    2.73    1.07
   5   7  16    0.10    1.10
   5   7  16    0.29    1.30
  -5   7 -16    2.74    1.02
   5  -7  17    5.92    1.48
   5   7  17   10.28    2.26
   5   7  18   18.58    3.02
   5   8 -17    0.33    0.58
  -5   8  17    0.29    1.00
   5   8 -16   -0.21    0.67
  -5   8  16    1.74    0.89
  -5   8  16   -0.04    0.84
   5   8 -15   17.83    2.87
   5   8 -15   16.20    2.71
  -5   8  15   13.56    3.63
  -5   8  15   15.73    3.52
   5   8 -14    4.86    1.73
   5   8 -14    5.18    1.92
  -5   8  14    4.30    1.95
  -5   8  14    4.62    2.16
  -5  -8  14    4.10    1.28
   5   8 -13   12.80    2.61
   5   8 -13    8.54    2.52
  -5   8  13    8.54    2.59
  -5   8  13   10.87    3.00
  -5  -8  13    9.62    1.90
   5  -8 -12    0.31    1.07
   5   8 -12    4.84    1.53
   5   8 -12    3.85    1.52
  -5   8  12    4.51    2.23
  -5   8  12    3.04    1.82
  -5  -8  12    3.48    1.06
   5  -8 -11   28.30    3.76
   5   8 -11   27.17    4.46
   5   8 -11   27.55    4.43
  -5   8  11   24.28    4.97
  -5   8  11   26.27    5.21
   5  -8 -10   14.82    2.41
   5   8 -10   14.95    3.07
   5   8 -10   13.40    3.21
   5   8 -10    4.70    2.21
   5  -8 -10   12.74    2.35
  -5   8  10   11.46    3.10
  -5   8  10   13.52    3.54
   5  -8  -9   47.89    5.47
   5  -8  -9   48.54    5.47
   5   8  -9   43.43    6.17
   5   8  -9   43.89    6.54
   5   8  -9   43.05    5.44
  -5   8   9   41.94    6.38
  -5   8   9   47.18    7.43
   5  -8  -8    5.07    1.49
   5  -8  -8    2.53    1.42
   5   8  -8    3.05    1.70
   5   8  -8    3.24    1.79
   5   8  -8    2.93    1.44
  -5   8   8    3.57    1.92
  -5   8   8    2.13    1.97
   5  -8  -7    2.79    1.10
   5  -8  -7    0.77    1.11
   5   8  -7    0.70    0.95
   5   8  -7    0.53    1.43
   5   8  -7    1.27    1.09
  -5   8   7    0.45    1.44
  -5   8   7    3.78    1.46
   5  -8  -6    0.45    1.07
   5  -8  -6    2.99    1.12
   5  -8  -6    0.72    1.11
   5   8  -6    0.85    1.22
   5   8  -6    0.02    1.23
   5   8  -6    2.82    1.10
  -5   8   6    0.42    1.36
   5  -8  -5   30.27    4.37
   5  -8  -5   30.99    4.01
   5   8  -5   30.20    4.85
   5   8  -5   25.81    4.55
   5   8  -5   27.01    4.35
  -5   8   5   30.20    5.12
   5  -8  -4    0.53    0.82
   5  -8  -4    0.40    0.76
   5   8  -4   -0.38    0.92
   5   8  -4    0.62    0.88
   5   8  -4    0.47    0.84
  -5   8   4    0.26    0.98
  -5   8   4    0.34    1.69
   5  -8  -3   63.82    7.09
   5  -8  -3   66.21    6.42
   5   8  -3   51.59    7.82
   5   8  -3   53.73    7.33
   5   8  -3   60.39    7.37
  -5   8   3   67.40   12.40
   5  -8  -2   10.85    1.87
   5  -8  -2    8.58    1.79
   5   8  -2    5.05    2.27
   5   8  -2    6.12    2.13
   5   8  -2    5.16    2.18
   5  -8  -2    0.38    1.31
  -5   8   2    9.36    3.81
   5  -8  -1    0.03    0.81
   5  -8  -1    0.37    0.80
   5   8  -1   -0.15    0.97
   5   8  -1    2.85    1.00
   5   8  -1   -0.55    0.96
   5  -8  -1    0.27    0.61
  -5   8   1    1.60    1.86
   5  -8   0   21.43    3.56
   5  -8   0   30.14    4.08
   5   8   0   18.75    4.05
   5   8   0   21.86    4.47
  -5   8   0   26.75    7.80
   5  -8   1  162.71   14.09
   5  -8   1  189.74   15.50
   5   8   1  149.12   15.68
   5   8   1  153.15   16.23
  -5   8  -1  168.17   25.35
   5  -8   2   44.72    5.24
   5  -8   2   44.96    5.32
   5   8   2   35.91    5.64
   5   8   2   41.13    6.72
  -5   8  -2   33.98   10.17
   5  -8   3  261.06   21.41
   5  -8   3  289.77   22.50
   5   8   3  235.45   22.59
   5   8   3  239.44   24.17
  -5   8  -3  263.06   35.42
   5  -8   4   11.20    2.38
   5  -8   4   12.92    2.38
   5   8   4    8.17    2.82
   5   8   4    8.90    3.10
  -5   8  -4   10.71    4.62
   5  -8   5   26.77    3.60
   5   8   5   22.94    4.51
   5   8   5   21.21    4.27
  -5   8  -5   23.12    6.82
   5  -8   6    1.75    1.14
   5  -8   6    6.04    1.29
   5   8   6    0.47    1.37
   5   8   6    5.11    1.85
   5   8   6    4.00    1.91
  -5   8  -6    4.10    2.80
   5  -8   7   15.10    2.35
   5   8   7   11.83    2.53
   5   8   7    9.80    3.25
   5   8   7   13.54    3.44
  -5   8  -7   12.29    3.03
   5  -8   8    2.53    1.49
   5  -8   8    5.58    1.41
   5   8   8    4.87    1.67
   5   8   8    3.94    2.01
   5   8   8    6.18    2.14
  -5   8  -8    3.56    2.36
   5  -8   9    1.76    1.19
   5  -8   9    2.91    1.07
   5   8   9    3.42    1.42
   5   8   9    2.60    1.72
   5   8   9    2.91    1.75
  -5   8  -9    4.48    1.94
   5  -8  10    0.34    0.66
   5   8  10    0.43    1.04
   5   8  10    1.44    1.16
  -5   8 -10    0.56    1.15
   5  -8  11   -0.35    0.81
   5  -8  11    2.02    0.83
   5   8  11    0.27    1.22
   5   8  11    2.76    1.35
  -5   8 -11    1.73    1.31
   5   8  12    5.42    2.46
   5   8  12   10.80    2.91
  -5   8 -12   11.87    2.75
   5   8  13    1.46    2.31
   5   8  13   12.52    2.63
  -5   8 -13   13.05    2.50
   5   8  14    3.61    1.46
   5   8  14   -0.01    1.26
  -5   8 -14    2.88    1.23
   5   8  15    0.03    1.72
   5   8  15    9.41    2.10
  -5   8 -15   12.48    1.97
   5   8  16   -0.02    0.50
   5   9 -15    7.12    1.81
  -5   9  15    6.58    2.20
   5   9 -14   12.24    2.13
   5   9 -14   10.35    2.10
  -5   9  14   13.35    2.91
   5  -9 -13    1.51    0.73
   5   9 -13    1.01    1.09
   5   9 -13    2.04    1.11
  -5   9  13    0.22    1.30
  -5   9  13    2.75    1.35
  -5  -9  13    1.37    0.75
   5   9 -12   15.70    2.75
   5   9 -12   13.23    2.60
  -5   9  12   13.11    3.58
  -5   9  12   13.89    3.39
  -5  -9  12   11.93    1.92
   5  -9 -11   -0.17    1.16
   5   9 -11    4.43    1.82
   5   9 -11    6.55    1.67
  -5   9  11    4.95    1.96
  -5   9  11    6.82    2.13
  -5  -9  11    6.20    1.17
   5  -9 -10    0.39    0.81
   5   9 -10    0.46    1.03
   5   9 -10    2.58    1.14
   5   9 -10   -0.15    0.82
  -5   9  10    0.05    1.22
  -5   9  10    3.14    1.24
   5  -9  -9    5.19    1.62
   5   9  -9    5.98    1.90
   5   9  -9    4.82    1.94
   5   9  -9    3.66    1.58
  -5   9   9    3.20    1.95
  -5   9   9    4.74    2.27
   5  -9  -8    4.69    1.53
   5   9  -8    3.55    1.82
   5   9  -8    5.28    1.99
   5   9  -8    3.57    1.54
  -5   9   8    5.71    1.84
  -5   9   8    3.75    2.09
  -5   9   8    0.57    2.93
   5   9  -7    4.71    1.89
   5   9  -7    4.28    1.92
   5   9  -7    5.35    1.60
   5  -9  -7    5.72    1.70
  -5   9   7    4.61    2.32
  -5   9   7   -0.40    2.98
   5  -9  -6    3.18    1.26
   5   9  -6    3.35    1.43
   5   9  -6    0.56    1.41
   5   9  -6    1.31    1.23
  -5   9   6    3.45    1.69
  -5   9   6   -0.33    2.37
   5  -9  -5    5.45    1.57
   5   9  -5    3.45    1.85
   5   9  -5    3.98    1.84
   5   9  -5    5.69    1.59
   5  -9  -5    1.79    1.28
  -5   9   5    5.42    2.14
  -5   9   5    2.15    2.95
   5  -9  -4   -0.32    0.79
   5  -9  -4   -0.04    0.82
   5   9  -4    2.74    0.93
   5   9  -4    0.07    0.96
   5   9  -4   -0.01    0.84
  -5   9   4    0.69    1.65
   5  -9  -3   42.23    4.10
   5   9  -3   34.63    5.18
   5   9  -3   35.49    4.95
  -5   9   3   41.33    8.88
   5  -9  -2    2.89    1.49
   5  -9  -2    4.30    1.36
   5   9  -2    0.23    1.65
   5   9  -2    4.02    1.65
   5   9  -2    2.90    1.62
  -5   9   2    5.73    2.98
   5  -9  -1    2.59    0.95
   5   9  -1    2.75    1.30
   5   9  -1   -1.00    1.40
   5   9  -1    2.68    1.25
   5  -9  -1    0.38    0.88
  -5   9   1   -0.38    2.22
   5  -9   0   16.93    2.62
   5   9   0   12.52    3.01
   5   9   0   14.23    3.09
  -5   9   0   16.07    5.74
   5  -9   1    3.50    1.13
   5   9   1    3.54    1.59
   5   9   1    1.87    1.41
   5  -9   1   -0.19    0.94
  -5   9  -1    4.50    1.65
   5  -9   2    1.33    1.35
   5  -9   2    8.05    1.64
   5   9   2    7.34    2.17
   5   9   2    7.78    2.11
  -5   9  -2    9.36    3.26
   5  -9   3   18.94    2.70
   5   9   3   11.78    3.31
   5   9   3   17.46    3.46
  -5   9  -3   20.43    5.43
   5  -9   4   -0.19    0.93
   5  -9   4    3.28    1.03
   5   9   4    2.85    1.44
   5   9   4    2.79    1.44
  -5   9  -4    2.39    1.96
   5  -9   5   -0.12    0.27
   5   9   5    0.47    0.57
   5   9   5    0.44    0.59
   5  -9   5   -0.06    0.37
  -5   9  -5   -0.45    0.77
   5  -9   6    0.02    1.31
   5  -9   6    5.44    1.28
   5   9   6    4.98    1.75
   5   9   6    6.15    1.87
  -5   9  -6    4.82    2.42
   5  -9   7    4.27    1.02
   5   9   7    3.73    1.60
   5   9   7    2.81    1.75
   5  -9   7   -0.05    1.17
  -5   9  -7    3.34    2.08
   5  -9   8   -0.43    0.97
   5  -9   8    2.91    0.91
   5   9   8    0.67    1.47
   5   9   8    2.95    1.50
  -5   9  -8    5.37    1.67
   5  -9   9    0.08    0.94
   5  -9   9    3.23    0.87
   5   9   9    1.15    1.40
   5   9   9    2.54    1.44
  -5   9  -9    2.21    1.14
   5  -9  10    0.10    1.21
   5   9  10   11.53    2.02
   5   9  10    6.77    2.00
  -5   9 -10    6.59    2.14
   5   9  11    0.30    1.71
   5   9  11    1.67    1.54
  -5   9 -11    4.02    1.44
   5   9  12    0.45    1.48
   5   9  12    1.57    1.29
  -5   9 -12    2.69    1.24
   5   9  13    0.19    2.17
   5   9  13   13.80    2.32
  -5   9 -13   14.10    2.18
   5   9  14    2.54    1.19
   5  10 -12    2.50    0.97
   5  10 -12    1.87    1.11
   5 -10 -11    2.11    1.08
   5  10 -11    7.37    1.44
   5  10 -11    5.27    1.52
  -5  10  11    6.32    2.17
   5 -10 -10    2.39    0.89
   5  10 -10    6.92    1.05
   5  10 -10   -0.10    1.17
  -5  10  10    0.07    1.34
  -5 -10  10    0.14    0.75
   5 -10  -9    9.86    1.99
   5  10  -9    7.76    1.87
   5  10  -9    5.65    1.99
  -5  10   9    5.58    2.34
   5  10  -8    3.14    1.46
   5  10  -8    3.03    1.55
   5  10  -8    3.68    1.27
   5 -10  -8    3.96    1.36
  -5  10   8    2.69    1.69
   5 -10  -7    5.74    1.58
   5  10  -7    4.81    1.71
   5  10  -7    5.47    1.93
   5  10  -7    5.97    1.58
  -5  10   7    3.01    2.05
   5 -10  -6   10.02    1.89
   5  10  -6   -0.32    1.84
   5  10  -6    8.44    2.10
   5  10  -6    9.58    1.91
  -5  10   6    8.95    2.81
   5 -10  -5    1.99    1.10
   5 -10  -5    5.01    1.37
   5  10  -5   -0.04    1.44
   5  10  -5    4.04    1.62
   5  10  -5    3.53    1.37
  -5  10   5    7.14    2.68
   5 -10  -4   16.13    1.90
   5  10  -4   -0.33    1.75
   5  10  -4    9.86    1.90
   5  10  -4   11.98    1.93
   5 -10  -4    0.03    1.44
  -5  10   4    0.04    2.89
   5 -10  -3    7.70    1.40
   5  10  -3    3.60    2.00
   5  10  -3    3.85    1.58
   5  10  -3    4.38    1.57
   5 -10  -3    1.74    1.29
  -5  10   3   -0.23    2.40
   5 -10  -2    0.41    0.55
   5  10  -2    0.13    0.70
  -5  10   2   -0.51    1.05
   5 -10  -1   26.42    3.04
   5  10  -1   20.43    3.60
   5  10  -1   22.64    3.59
  -5  10   1   15.38    4.69
   5 -10   0    1.78    1.51
   5 -10   0   12.08    1.79
   5  10   0   10.53    2.39
   5  10   0    8.87    2.20
  -5  10   0   12.38    3.12
   5 -10   1   31.27    3.52
   5  10   1   26.23    4.03
   5  10   1   23.87    4.20
  -5  10  -1   28.67    5.61
   5 -10   2    1.64    1.44
   5 -10   2   11.37    1.77
   5  10   2    9.84    2.15
   5  10   2   10.91    2.20
  -5  10  -2   11.47    3.12
   5 -10   3    1.72    1.38
   5 -10   3    8.88    1.42
   5  10   3    5.76    2.11
   5  10   3    8.16    2.02
  -5  10  -3    7.30    2.55
   5 -10   4    2.01    1.00
   5 -10   4    3.35    0.98
   5  10   4    4.30    1.50
   5  10   4    0.72    1.49
  -5  10  -4    2.57    1.87
   5 -10   5   -0.03    0.78
   5 -10   5    1.98    0.72
   5  10   5    0.32    1.19
   5  10   5    0.11    1.12
  -5  10  -5    2.70    1.27
   5 -10   6    0.09    0.72
   5 -10   6    2.20    0.70
   5  10   6    0.12    1.07
   5  10   6    0.34    1.06
  -5  10  -6    0.53    1.22
   5 -10   7   -0.19    0.71
   5 -10   7    1.64    0.61
   5  10   7   -0.08    0.99
   5  10   7    0.70    0.98
  -5  10  -7    1.19    1.15
   5 -10   8    1.90    0.97
   5  10   8    1.02    1.23
   5  10   8    0.45    1.32
  -5  10  -8    2.67    1.39
   5  10   9    0.39    1.07
   5  10   9    2.65    1.14
  -5  10  -9    0.83    1.25
   5  10  10    0.19    0.64
   5  10  10   -0.19    0.58
  -5  10 -10    0.33    0.67
   5  10  11    2.11    1.23
  -5  10 -11    3.79    1.34
   5  11  -7    0.13    1.05
   5 -11  -7    2.74    1.01
   5 -11  -6   -0.08    0.41
   5  11  -6    0.20    0.54
   5  11  -6    0.10    0.45
   5 -11  -5    2.19    0.93
   5  11  -5    0.25    1.15
   5  11  -5    1.80    0.94
   5 -11  -4    8.03    1.48
   5  11  -4    5.77    1.87
   5  11  -4    5.67    1.65
   5 -11  -3    2.19    0.77
   5  11  -3    0.27    1.09
   5  11  -3    0.34    0.86
   5 -11  -2   20.38    2.50
   5  11  -2   14.11    2.69
   5  11  -2   17.04    2.69
   5 -11  -1    1.46    0.75
   5  11  -1    0.00    0.97
   5  11  -1    2.00    0.96
   5 -11   0    3.45    0.93
   5  11   0    0.60    1.19
   5  11   0    3.80    1.15
  -5  11   0    0.02    1.46
   5 -11   1    7.83    1.26
   5  11   1    5.99    1.70
   5  11   1    4.95    1.71
  -5  11  -1    2.35    1.99
   5 -11   2    4.32    0.98
   5  11   2    4.79    1.39
   5  11   2    2.71    1.57
  -5  11  -2    0.38    1.59
   5 -11   3    0.11    0.65
   5  11   3   -0.10    0.95
   5  11   3    2.43    0.92
  -5  11  -3    2.56    1.09
   5  11   4    4.22    1.35
   5  11   4    3.95    1.33
  -5  11  -4   -0.48    1.45
   5  11   5    2.40    1.23
   5  11   5    1.58    1.20
  -5  11  -5    2.96    1.39
   5  11   6    4.44    1.80
   5  11   6    8.31    1.99
   6   0 -21   -0.07    0.91
  -6   0  21    2.40    0.94
   6   0 -20    2.26    0.87
   6   0 -20    0.07    1.00
  -6   0  20    0.39    0.95
   6   0 -19    0.25    0.80
   6   0 -19    2.52    1.07
   6   0 -19    0.07    0.86
   6   0 -18   16.75    2.81
   6   0 -18   13.95    3.27
   6   0 -18   15.21    3.23
   6   0 -17    0.58    1.01
   6   0 -17   -0.01    1.28
   6   0 -17    2.78    1.23
   6   0 -16    4.78    2.35
   6   0 -16    6.74    1.91
   6   0 -16    5.54    2.42
   6   0 -15    0.14    1.02
   6   0 -15    0.39    0.75
   6   0 -15   -0.04    0.92
   6   0 -14   56.44    7.17
   6   0 -14   53.11    8.22
   6   0 -14   57.66    8.42
   6   0 -13    4.23    1.52
   6   0 -13   -0.07    1.56
   6   0 -13   -0.18    1.28
   6   0 -12    7.66    2.90
   6   0 -12   14.62    3.45
   6   0 -12   11.28    2.69
   6   0 -11    0.08    0.74
   6   0 -11   -0.01    0.89
   6   0 -11    0.42    1.02
   6   0 -10   43.54    5.97
   6   0 -10   42.03    6.87
   6   0 -10   48.57    5.94
   6   0  -9    0.46    0.82
   6   0  -9    0.20    0.93
   6   0  -9    0.28    1.02
   6   0  -8    3.25    1.50
   6   0  -8    1.79    1.94
   6   0  -8    3.42    1.59
   6   0  -8    2.69    1.78
   6   0  -7    0.32    0.79
   6   0  -7   -0.42    0.58
   6   0  -7   -0.05    0.48
   6   0  -7    0.12    0.67
   6   0  -6   81.22    8.02
   6   0  -6   85.92   11.64
   6   0  -6   85.04    8.22
   6   0  -6   76.22    9.11
   6   0  -5    0.22    0.73
   6   0  -5   -0.56    0.94
   6   0  -5   -0.17    0.75
   6   0  -4  285.95   25.48
   6   0  -4  279.46   23.92
   6   0  -3   -0.46    0.54
   6   0  -3    0.33    0.75
   6   0  -3    0.04    0.70
   6   0  -2  201.32   15.49
   6   0  -2  204.53   18.74
   6   0  -2  185.69   16.84
   6   0  -2  186.77   16.86
   6   0  -1    0.09    1.49
   6   0  -1    2.92    1.14
   6   0  -1    2.89    1.26
   6   0  -1    2.48    1.56
   6   0   0   98.05    9.95
   6   0   0   96.34    8.91
   6   0   0   98.87   10.68
   6   0   0   94.45    8.17
   6   0   1    2.19    1.20
   6   0   1    0.44    1.42
   6   0   1    0.14    1.22
   6   0   1    5.36    1.32
   6   0   2  283.76   22.06
   6   0   2  303.35   24.85
   6   0   2  296.39   26.44
   6   0   2  293.95   22.74
   6   0   3   -0.44    0.97
   6   0   3    2.69    0.91
   6   0   3    0.33    0.80
   6   0   3    0.33    1.22
   6   0   4  191.28   18.80
   6   0   4  197.76   16.80
   6   0   4  198.86   16.61
   6   0   5    0.28    0.96
   6   0   5    0.48    0.86
   6   0   5    0.17    0.71
   6   0   6  162.30   14.45
   6   0   6  160.39   13.57
   6   0   6  132.31   13.75
   6   0   7   -0.42    0.50
   6   0   7    0.20    0.56
   6   0   7    0.24    0.66
   6   0   7    0.00    0.56
   6   0   8  589.39   48.35
   6   0   8  640.09   48.08
   6   0   8  592.98   43.79
   6   0   9    0.08    0.60
   6   0   9    0.08    0.54
   6   0   9   -0.51    0.62
   6   0  10   67.28    7.73
   6   0  10   57.27    6.03
   6   0  11    0.15    0.64
   6   0  11    0.06    0.56
   6   0  12    6.85    1.82
   6   0  12    3.75    1.58
   6   0  13    2.32    1.00
   6   0  13   -0.01    0.86
   6   0  14    4.62    1.37
   6   0  14    2.32    1.35
   6   0  15    0.22    0.56
   6   0  15   -0.43    0.54
   6   0  16    0.37    0.58
   6   0  16    0.03    0.67
   6   0  17    2.98    0.92
   6   0  17    0.09    1.04
   6   0  18   11.50    1.77
   6   0  18    6.88    1.97
   6   0  19    0.00    0.38
  -6   1  21    7.48    1.80
   6  -1 -20    2.51    1.46
   6  -1 -20    1.97    1.13
   6   1 -20    2.93    1.17
   6   1 -20    3.26    1.29
   6   1 -20    3.11    1.15
  -6   1  20    0.68    1.26
   6  -1 -19   -0.08    1.03
   6  -1 -19   -0.01    0.94
   6   1 -19   -0.03    0.86
   6   1 -19    0.44    1.54
   6   1 -19    2.69    0.99
  -6   1  19    2.04    0.94
   6  -1 -18   17.50    2.92
   6   1 -18   14.58    3.24
   6  -1 -18   14.73    3.27
   6   1 -18   14.40    2.75
   6   1 -18   16.75    3.16
  -6   1  18   10.86    2.85
   6   1 -17   14.92    3.59
   6  -1 -17   15.84    2.99
   6  -1 -17   17.07    3.61
   6  -1 -17   14.91    3.20
   6   1 -17   15.92    2.82
   6   1 -17   14.57    3.41
   6  -1 -16    5.36    1.81
   6  -1 -16    6.23    2.19
   6   1 -16    5.32    1.96
   6   1 -16    3.98    2.23
   6   1 -16    5.06    2.44
   6  -1 -16    6.20    1.91
   6  -1 -15   41.56    5.43
   6  -1 -15   37.15    4.89
   6   1 -15   41.40    6.43
   6   1 -15   43.54    6.64
   6   1 -15   41.28    5.58
   6  -1 -15   42.50    6.48
   6  -1 -14    4.69    1.27
   6  -1 -14    0.02    1.10
   6  -1 -14    3.41    1.38
   6   1 -14    0.00    1.25
   6   1 -14    0.36    1.53
   6   1 -14   -0.24    1.65
   6  -1 -13   10.60    2.88
   6  -1 -13   13.23    3.40
   6  -1 -13    7.73    3.26
   6   1 -13   10.31    2.78
   6   1 -13   12.10    3.12
   6   1 -13   11.22    3.58
   6  -1 -12   45.11    5.86
   6  -1 -12   40.83    5.65
   6  -1 -12   45.89    7.36
   6   1 -12   46.65    5.24
   6   1 -12   45.38    6.86
   6   1 -12   47.72    6.02
   6  -1 -11    1.46    1.64
   6  -1 -11    2.43    1.57
   6   1 -11    4.75    1.92
   6   1 -11    3.53    2.16
   6   1 -11    3.64    1.21
   6  -1 -11    4.00    1.98
   6  -1 -10   26.76    4.85
   6   1 -10   25.20    4.40
   6  -1 -10   20.47    3.77
   6  -1 -10   21.04    4.66
   6   1 -10   20.40    4.04
   6   1 -10   24.21    4.66
   6  -1  -9    5.01    1.84
   6  -1  -9    5.00    2.20
   6  -1  -9    7.73    2.45
   6   1  -9    6.25    2.02
   6   1  -9    5.20    2.15
   6   1  -9    5.05    1.63
   6  -1  -8    5.10    2.21
   6  -1  -8    4.17    1.50
   6  -1  -8    4.32    1.99
   6  -1  -8    5.07    2.02
   6   1  -8    1.31    2.17
   6   1  -8    3.32    1.63
   6   1  -8    3.40    1.70
   6   1  -8    4.07    1.89
   6   1  -7   16.31    3.48
   6  -1  -7   15.98    2.80
   6  -1  -7   15.03    3.66
   6  -1  -7   16.10    3.75
   6   1  -7   17.06    3.86
   6   1  -7   13.93    2.86
   6   1  -7   13.84    3.26
   6  -1  -7   16.87    4.56
   6  -1  -6   49.25    5.27
   6  -1  -6   45.65    6.32
   6  -1  -6   50.38    6.91
   6   1  -6   48.51    8.31
   6   1  -6   50.87    5.71
   6   1  -6   43.74    6.08
   6   1  -6   48.53    6.53
   6  -1  -6   48.11    8.53
   6  -1  -5   -0.22    1.20
   6  -1  -5    0.64    0.86
   6  -1  -5    2.84    1.26
   6  -1  -5    0.59    1.36
   6   1  -5    4.12    1.73
   6   1  -5    3.39    1.28
   6   1  -5    0.39    1.10
   6  -1  -4   12.10    2.02
   6  -1  -4    8.52    2.84
   6  -1  -4    7.15    2.78
   6   1  -4   11.37    2.64
   6   1  -4   10.47    2.46
   6  -1  -3   31.35    3.72
   6  -1  -3   31.48    5.08
   6  -1  -3   30.17    4.80
   6  -1  -3   26.29    4.36
   6   1  -3   29.58    4.58
   6   1  -3   27.29    4.28
   6   1  -2    2.79    1.21
   6  -1  -2    3.98    2.05
   6  -1  -2    5.52    1.77
   6  -1  -2    3.13    1.60
   6   1  -2    3.87    1.57
   6   1  -2    3.90    1.51
   6  -1  -2    2.24    1.35
   6  -1  -1  100.07   10.94
   6  -1  -1   94.89   10.23
   6  -1  -1   92.27    9.26
   6   1  -1   78.92    7.50
   6   1  -1   86.91    8.22
   6   1  -1   80.20    8.32
   6   1  -1   93.01    9.25
   6  -1  -1   92.89    8.50
   6  -1   0   57.31    7.34
   6  -1   0   53.18    5.51
   6  -1   0   49.53    6.44
   6  -1   0   51.72    6.11
   6   1   0   49.78    5.40
   6   1   0   50.48    5.43
   6   1   0   44.78    5.63
   6   1   0   51.84    5.86
   6  -1   1    0.43    0.87
   6  -1   1   -0.28    0.82
   6  -1   1    0.45    0.82
   6  -1   1    2.81    1.06
   6   1   1    0.41    0.76
   6   1   1    0.20    0.76
   6   1   1    0.12    0.86
   6   1   2    1.99    1.54
   6  -1   2    4.91    1.41
   6  -1   2    2.77    1.29
   6  -1   2    1.36    1.74
   6   1   2    2.27    1.29
   6   1   2    4.04    1.34
   6  -1   2    2.39    1.46
   6  -1   3    5.81    2.07
   6  -1   3    8.92    1.78
   6  -1   3    7.75    2.26
   6   1   3    5.47    1.97
   6   1   3    3.60    2.03
   6   1   3    6.42    1.83
   6  -1   3    7.82    2.04
   6   1   4   21.63    3.81
   6  -1   4   27.02    3.80
   6  -1   4   23.54    3.07
   6  -1   4   28.60    3.35
   6  -1   4   22.07    4.23
   6   1   4   19.06    3.86
   6   1   4   23.73    3.30
   6  -1   5    0.90    1.22
   6  -1   5    2.66    1.41
   6  -1   5    1.00    1.02
   6  -1   5    1.00    1.56
   6   1   5    2.77    1.54
   6   1   5    4.14    1.11
   6   1   5    1.41    1.41
   6  -1   6   68.74    8.79
   6  -1   6   70.63    8.02
   6  -1   6   65.95    7.75
   6   1   6   66.96    7.70
   6   1   6   72.56    7.01
   6   1   6   63.72    8.31
   6  -1   7   31.90    5.92
   6  -1   7   37.06    5.25
   6   1   7   34.59    5.17
   6   1   7   34.88    4.33
   6   1   7   34.17    5.60
   6  -1   7   35.22    4.92
   6  -1   8    4.49    1.39
   6  -1   8    2.25    1.22
   6   1   8    0.46    1.03
   6   1   8    1.03    1.01
   6  -1   9  122.17   13.39
   6  -1   9  164.80   14.19
   6  -1   9  144.65   11.61
   6   1   9  156.36   14.47
   6   1   9  133.82   11.71
   6  -1  10   51.18    4.95
   6  -1  10   40.55    4.95
   6   1  10   38.00    5.21
   6   1  10   51.93    6.31
   6  -1  11    4.59    1.68
   6   1  11    9.00    1.55
   6   1  11    4.05    1.99
   6  -1  11    9.31    1.98
   6   1  12    3.28    1.31
   6  -1  12    2.49    1.27
   6  -1  12    2.03    1.12
   6   1  12    0.58    1.17
   6  -1  13   12.16    2.20
   6   1  13   15.78    2.36
   6   1  13    2.05    1.94
   6   1  13   -0.12    2.84
   6  -1  13   14.31    1.76
   6  -1  14   12.60    2.07
   6  -1  14   11.71    2.09
   6   1  14   18.75    2.21
   6   1  14    0.04    1.90
   6   1  14    0.07    2.94
   6  -1  15    0.06    0.84
   6   1  15   -0.01    0.83
   6   1  15   -0.01    1.28
   6   1  15    0.92    0.84
   6  -1  15    2.28    0.80
   6  -1  16    0.98    0.77
   6  -1  16    0.95    0.82
   6   1  16    1.82    0.82
   6   1  16   -0.19    1.22
   6   1  16    0.00    0.83
   6  -1  17    3.71    1.13
   6  -1  17    2.39    1.16
   6   1  17    5.88    1.13
   6   1  17    0.00    1.16
   6   1  17    0.51    1.62
   6  -1  18    2.73    0.80
   6  -1  18    0.54    0.94
   6   1  18    1.95    0.78
   6   1  18    0.00    0.86
   6   1  18    0.02    1.20
   6  -1  19   -0.02    0.55
   6   1  19   -0.27    0.41
   6   1  19    0.00    0.61
   6  -2 -20    5.08    1.28
   6   2 -20    5.52    1.35
   6   2 -20    0.14    1.61
   6   2 -20    4.88    1.50
   6  -2 -20    4.73    1.73
  -6   2  20    4.42    1.58
   6  -2 -19   27.76    4.17
   6  -2 -19   27.99    3.59
   6   2 -19   28.00    3.44
   6   2 -19   20.70    3.57
   6   2 -19   28.30    4.07
  -6   2  19   23.22    3.81
   6  -2 -18    8.66    2.06
   6   2 -18   10.64    2.07
   6   2 -18    7.08    2.28
   6   2 -18    8.90    2.43
   6  -2 -18    6.58    2.38
  -6   2  18    7.18    2.29
   6  -2 -17    4.34    1.43
   6  -2 -17    5.97    1.85
   6   2 -17    3.45    1.74
   6   2 -17    5.02    2.08
   6   2 -17    4.33    2.00
  -6   2  17    5.97    1.89
   6  -2 -16    4.46    1.99
   6  -2 -16    5.67    1.98
   6   2 -16    5.17    1.64
   6   2 -16    4.17    2.09
   6   2 -16    3.06    2.15
  -6   2  16    2.76    1.83
   6  -2 -15    0.38    1.53
   6  -2 -15    0.64    1.39
   6   2 -15    0.49    1.24
   6   2 -15    3.90    1.56
   6   2 -15    0.53    1.61
  -6   2  15    3.13    1.36
   6  -2 -14    0.83    1.21
   6   2 -14   -0.34    1.05
   6   2 -14    0.07    1.30
   6   2 -14    0.20    1.22
   6  -2 -14    1.93    0.84
   6  -2 -13   16.73    3.58
   6  -2 -13   18.04    3.95
   6  -2 -13   19.88    4.06
   6   2 -13   17.92    3.36
   6   2 -13   15.81    4.36
   6   2 -13   14.02    3.76
   6  -2 -12   14.90    3.80
   6  -2 -12   15.30    3.95
   6   2 -12   16.10    4.03
   6   2 -12   15.66    3.27
   6   2 -12   14.75    3.51
   6  -2 -12   14.90    3.27
   6  -2 -11    2.68    1.17
   6  -2 -11    3.34    1.42
   6  -2 -11   -0.04    1.40
   6   2 -11   -0.33    1.19
   6   2 -11    0.11    1.28
   6   2 -11    0.70    1.46
   6  -2 -10   74.62   10.07
   6  -2 -10   72.56    7.70
   6  -2 -10   69.74    9.34
   6   2 -10   67.19    8.16
   6   2 -10   61.17    8.39
   6   2 -10   72.83    9.03
   6  -2  -9   52.99    6.48
   6  -2  -9   52.99    7.76
   6  -2  -9   55.33    8.49
   6   2  -9   49.00    6.53
   6   2  -9   50.64    7.27
   6   2  -9   47.85    6.65
   6  -2  -8  120.27   10.96
   6  -2  -8  105.92   12.87
   6  -2  -8  120.94   14.46
   6   2  -8  116.75   12.46
   6   2  -8  114.02   11.75
   6   2  -8  107.57   11.59
   6  -2  -7  107.52   13.95
   6  -2  -7   95.90   11.25
   6  -2  -7  105.71   12.42
   6   2  -7  102.79   12.30
   6   2  -7  101.46   10.17
   6   2  -7   93.29   10.29
   6  -2  -7  108.71    9.98
   6   2  -7  100.37   10.56
   6  -2  -6    4.70    2.61
   6  -2  -6   11.46    2.00
   6  -2  -6   10.73    2.94
   6  -2  -6    9.57    2.28
   6   2  -6    7.20    3.72
   6   2  -6   10.88    2.46
   6   2  -6    8.76    2.33
   6   2  -6    9.84    2.51
   6  -2  -5    3.30    1.25
   6  -2  -5    5.44    1.85
   6   2  -5   -0.24    1.58
   6   2  -5    3.78    1.44
   6   2  -5    3.19    1.59
   6   2  -5    2.88    1.62
   6  -2  -5    6.70    1.87
   6  -2  -4    1.15    1.11
   6  -2  -4    1.16    1.38
   6  -2  -4    3.15    1.47
   6   2  -4    2.80    1.48
   6   2  -4    1.46    1.25
   6  -2  -4    4.22    1.55
   6  -2  -3   40.97    4.62
   6  -2  -3   35.82    5.33
   6  -2  -3   41.21    5.92
   6   2  -3   37.47    4.94
   6   2  -3   39.45    4.90
   6  -2  -3   40.44    5.85
   6  -2  -2  186.30   15.22
   6  -2  -2  174.37   14.67
   6  -2  -2  176.00   16.21
   6  -2  -2  196.12   17.64
   6   2  -2  176.33   15.53
   6   2  -2  175.54   15.22
   6  -2  -1  177.77   17.22
   6  -2  -1  184.70   15.27
   6  -2  -1  168.78   15.27
   6  -2  -1  181.10   16.85
   6   2  -1  171.96   13.82
   6   2  -1  182.19   15.16
   6  -2   0  199.12   18.31
   6  -2   0  191.56   15.84
   6  -2   0  173.97   16.21
   6  -2   0  190.94   16.88
   6   2   0  184.58   15.02
   6   2   0  191.95   15.49
   6  -2   1    7.67    2.36
   6  -2   1    8.30    2.09
   6  -2   1    8.13    2.37
   6  -2   1    5.16    2.19
   6   2   1    9.66    2.39
   6   2   1   10.93    1.94
   6   2   1    6.94    1.84
   6  -2   2   14.92    2.94
   6  -2   2    7.01    2.11
   6  -2   2   13.03    2.39
   6  -2   2    7.68    2.11
   6   2   2    6.81    1.92
   6   2   2    5.57    1.74
   6   2   2    7.67    2.71
   6  -2   3   16.83    3.92
   6  -2   3   16.34    3.27
   6  -2   3   15.77    2.83
   6   2   3   18.98    2.43
   6   2   3   16.27    2.98
   6  -2   3   18.89    3.50
   6  -2   4   93.69   10.14
   6  -2   4   95.84   11.41
   6  -2   4   97.67    9.70
   6  -2   4   93.53    8.53
   6   2   4   94.65    9.26
   6  -2   5   59.31    5.11
   6  -2   5   64.81    7.20
   6  -2   5   67.50    7.11
   6  -2   5   59.41    7.80
   6   2   5   56.91    6.86
  -6  -2  -5   53.18    5.98
   6  -2   6  187.56   16.10
   6  -2   6  186.47   15.96
   6  -2   6  171.10   15.83
   6   2   6  129.47   14.26
  -6   2  -6  165.26   20.24
  -6  -2  -6  153.84   13.04
   6  -2   7   25.60    4.33
   6  -2   7   26.44    4.29
   6   2   7   23.82    4.08
  -6   2  -7   20.13    6.29
   6  -2   8   85.10    8.94
   6  -2   8   90.67    9.46
   6   2   8   77.62    9.31
  -6   2  -8   77.40   12.41
   6  -2   9    0.24    0.71
   6   2   9    0.15    0.75
   6   2   9   -0.24    0.83
   6  -2   9    0.15    0.50
   6  -2  10   41.26    4.73
   6   2  10   41.54    4.84
   6   2  10   10.57    4.89
   6  -2  11    0.07    0.75
   6   2  11    1.46    0.88
   6   2  11    0.00    0.70
   6   2  11    0.11    1.04
   6  -2  12    0.04    0.60
   6   2  12    0.68    0.69
   6   2  12    0.01    0.61
   6   2  12   -0.50    0.91
   6  -2  12    0.22    0.45
   6  -2  13    0.58    0.51
   6  -2  13    0.17    0.74
   6   2  13    0.41    0.77
   6   2  13    0.03    0.75
   6   2  13    0.09    0.99
   6  -2  14    0.42    0.71
   6  -2  14    0.17    0.71
   6   2  14    0.36    0.75
   6   2  14    0.66    0.72
   6   2  14    0.02    1.04
   6  -2  15   23.59    2.76
   6  -2  15   18.39    2.81
   6   2  15   22.74    3.14
   6   2  15    0.04    3.77
   6  -2  16   29.48    3.46
   6  -2  16   26.73    3.58
   6   2  16   29.04    3.72
   6  -2  17   12.83    2.01
   6  -2  17   10.72    1.87
   6   2  17   12.68    1.72
   6   2  17    0.08    1.80
   6   2  17    0.75    2.34
   6  -2  18    9.63    1.63
   6  -2  18    9.19    1.71
   6   2  18   10.05    1.43
   6   2  18    0.13    1.63
   6   2  18    1.01    1.99
   6  -2  19    0.18    0.54
   6   3 -20    2.28    0.86
   6   3 -20   -0.17    0.86
  -6   3  20    0.32    0.91
   6  -3 -19    2.39    1.25
   6  -3 -19    3.52    1.16
   6   3 -19    3.17    1.28
   6   3 -19    0.66    1.36
   6   3 -19    3.30    1.35
  -6   3  19    2.97    1.34
   6  -3 -18    2.76    1.32
   6  -3 -18    2.32    1.10
   6   3 -18    1.94    1.12
   6   3 -18    0.70    1.31
   6   3 -18    2.15    1.22
  -6   3  18    0.29    1.23
   6  -3 -17    1.75    1.62
   6  -3 -17    5.23    1.42
   6   3 -17    2.97    1.46
   6   3 -17   -0.02    1.49
   6   3 -17    4.34    1.50
  -6   3  17    2.07    1.55
   6  -3 -16   20.76    3.55
   6   3 -16   22.03    2.62
   6   3 -16   20.56    3.92
   6  -3 -16   20.05    4.23
  -6   3  16   18.70    3.88
   6  -3 -15    7.90    2.61
   6  -3 -15    7.89    2.27
   6   3 -15    9.33    2.05
   6   3 -15   -0.09    2.18
   6   3 -15    8.72    2.51
  -6   3  15    6.86    2.34
   6  -3 -14   14.93    2.65
   6  -3 -14   16.69    3.42
   6   3 -14   14.93    2.95
   6   3 -14    0.57    3.01
   6   3 -14   16.10    3.21
  -6   3  14   14.46    3.31
   6  -3 -13    2.00    1.82
   6   3 -13    2.67    1.55
   6   3 -13    0.41    1.62
   6   3 -13    2.73    1.69
   6  -3 -13    4.82    1.92
  -6   3  13    3.79    1.74
   6  -3 -12    4.92    2.28
   6  -3 -12    7.23    2.48
   6   3 -12    4.15    2.13
   6   3 -12    4.12    2.16
   6   3 -12    6.22    2.12
  -6   3  12    4.85    2.31
   6  -3 -11   15.21    3.90
   6  -3 -11   15.90    3.04
   6   3 -11   16.49    3.47
   6   3 -11   13.73    3.50
   6   3 -11   17.81    3.94
  -6   3  11   19.03    3.82
   6  -3 -10   -0.02    1.14
   6  -3 -10    0.04    1.25
   6   3 -10    0.39    1.02
   6   3 -10   -0.08    1.08
   6   3 -10    0.10    1.14
  -6   3  10    2.62    1.05
   6  -3  -9   25.70    4.57
   6  -3  -9   25.41    4.74
   6   3  -9   23.58    4.28
   6   3  -9   22.96    4.06
   6   3  -9   23.96    4.19
  -6   3   9   21.03    4.36
   6  -3  -8    6.48    2.44
   6  -3  -8    7.23    1.95
   6   3  -8    5.17    2.16
   6   3  -8    5.27    2.04
   6   3  -8    5.42    2.21
  -6   3   8    6.62    2.26
   6  -3  -7   38.77    6.00
   6  -3  -7   37.81    6.60
   6   3  -7   39.00    5.40
   6   3  -7   36.30    5.15
   6   3  -7   36.53    5.50
   6  -3  -7   44.53    4.55
  -6   3   7   41.77    5.73
   6  -3  -6   18.37    2.88
   6  -3  -6   18.36    4.08
   6   3  -6   15.94    3.15
   6   3  -6   15.23    3.22
   6   3  -6   16.46    3.14
   6  -3  -6   17.43    2.62
  -6   3   6   18.77    3.38
   6  -3  -5   10.25    2.23
   6  -3  -5   12.74    3.12
   6  -3  -5   12.48    2.58
   6  -3  -5    9.46    3.15
   6   3  -5   11.73    2.69
   6   3  -5   12.41    2.54
   6   3  -5   12.54    2.66
   6  -3  -4    9.77    2.34
   6  -3  -4    5.29    1.70
   6  -3  -4    5.74    2.53
   6  -3  -4    4.84    2.36
   6   3  -4    5.17    1.79
   6  -3  -3  216.80   21.85
   6  -3  -3  213.84   17.67
   6  -3  -3  217.79   20.53
   6  -3  -3  205.02   17.69
   6  -3  -2   12.42    3.27
   6  -3  -2    9.68    2.51
   6  -3  -2    7.83    3.02
   6  -3  -2   12.75    2.94
   6  -3  -1    5.40    2.08
   6  -3  -1    9.37    2.60
   6  -3  -1    9.37    2.39
   6  -3  -1    9.09    2.50
   6  -3   0   10.32    2.89
   6  -3   0   13.26    2.48
   6  -3   0   13.08    2.84
   6  -3   0    9.88    2.85
   6   3   0   11.20    2.15
   6  -3   1   52.48    7.11
   6  -3   1   62.35    6.64
   6  -3   1   66.26    7.87
   6  -3   1   61.97    7.08
   6   3   1   67.67    6.40
   6  -3   2    3.98    1.46
   6  -3   2    5.63    1.82
   6  -3   2    6.20    1.99
   6  -3   2    6.52    1.82
   6   3   2    4.88    1.59
  -6  -3  -2    4.97    1.61
   6  -3   3    7.16    1.89
   6  -3   3    4.58    2.14
   6  -3   3    5.30    1.99
   6  -3   3    5.39    1.85
   6   3   3    5.73    1.79
  -6  -3  -3    5.25    1.72
   6  -3   4    2.32    1.66
   6  -3   4    2.62    1.54
   6  -3   4    4.60    1.63
   6  -3   4    4.46    1.37
   6   3   4    2.82    1.43
  -6  -3  -4    2.92    1.38
   6  -3   5    3.32    1.46
   6   3   5    2.96    1.38
   6  -3   5    1.85    1.04
  -6   3  -5    4.16    2.40
   6  -3   6    4.48    1.40
   6  -3   6    4.88    2.07
   6   3   6    5.60    1.89
   6   3   6    6.15    2.10
  -6   3  -6    5.52    3.17
   6  -3   7   62.23    7.31
   6   3   7   50.99    6.61
   6   3   7   53.78    7.61
   6  -3   7   56.60    6.40
  -6   3  -7   53.05   10.29
   6  -3   8    5.17    1.83
   6  -3   8    4.75    1.47
   6   3   8    4.50    1.90
   6   3   8    4.40    2.25
  -6   3  -8    4.92    2.95
   6  -3   9    0.25    0.97
   6   3   9    1.03    0.99
   6   3   9   -0.04    1.11
   6  -3   9    0.03    0.66
  -6   3  -9    3.68    1.40
   6  -3  10    0.58    1.09
   6   3  10    2.46    1.05
   6   3  10    0.01    1.67
  -6   3 -10    0.53    1.40
   6  -3  11   15.66    2.75
   6   3  11   17.60    3.15
   6   3  11   10.43    3.30
   6  -3  12    4.25    1.47
   6   3  12    5.41    1.58
   6   3  12    0.88    1.92
   6  -3  13    3.42    1.03
   6  -3  13    0.33    1.05
   6   3  13    1.65    1.16
   6   3  13    0.07    1.51
   6  -3  14    4.17    1.25
   6  -3  14    3.14    1.32
   6   3  14    4.60    1.45
   6   3  14    0.19    1.86
   6  -3  15    0.15    0.56
   6  -3  15    0.04    0.63
   6   3  15    0.35    0.63
   6   3  15    0.83    0.85
   6   3  15   -0.34    0.88
   6  -3  16    2.24    0.69
   6  -3  16    0.00    0.74
   6   3  16    0.07    0.67
   6   3  16    0.07    0.83
   6   3  16   -0.11    1.04
   6  -3  17    0.76    0.70
   6  -3  17    0.42    0.78
   6   3  17    2.86    0.80
   6   3  17    0.01    0.87
   6   3  17   -0.28    1.15
   6  -3  18    4.60    1.45
   6   3  18    6.54    1.25
   6   3  18    0.04    2.05
   6   4 -19   29.74    4.07
   6   4 -19   32.07    3.84
  -6   4  19   24.97    4.82
   6  -4 -18    7.06    2.06
   6  -4 -18    6.15    1.68
   6   4 -18    6.64    1.73
   6   4 -18    6.42    1.86
  -6   4  18    6.05    2.10
   6  -4 -17   20.49    3.05
   6   4 -17   19.50    3.03
   6   4 -17   17.35    3.26
   6  -4 -17   17.71    3.35
  -6   4  17   15.72    3.59
   6  -4 -16    3.27    1.65
   6  -4 -16    5.69    1.35
   6   4 -16    1.22    1.25
   6   4 -16    0.75    1.36
  -6   4  16    0.62    1.53
   6  -4 -15   30.90    4.33
   6   4 -15   30.06    4.03
   6   4 -15   27.42    4.17
   6  -4 -15   28.11    4.55
  -6   4  15   25.38    4.85
   6  -4 -14   18.47    4.07
   6  -4 -14   33.82    4.17
   6   4 -14   18.58    3.70
   6   4 -14   20.07    3.78
  -6   4  14   14.12    4.16
   6  -4 -13   11.72    3.16
   6  -4 -13   12.32    3.20
   6   4 -13   13.24    2.83
   6   4 -13   12.25    3.11
  -6   4  13   11.79    3.49
   6  -4 -12    5.81    2.06
   6   4 -12    4.96    1.93
   6   4 -12    5.98    2.02
   6  -4 -12    3.27    2.03
  -6   4  12    5.22    2.25
   6  -4 -11   30.25    5.46
   6  -4 -11   33.17    5.77
   6   4 -11   31.57    4.87
   6   4 -11   34.31    5.38
  -6   4  11   31.14    5.45
   6  -4 -10   45.54    6.75
   6  -4 -10   45.85    6.91
   6   4 -10   41.45    6.04
   6   4 -10   44.72    6.22
  -6   4  10   45.26    6.63
   6  -4  -9    9.02    2.89
   6   4  -9    9.47    2.56
   6   4  -9    6.37    2.54
   6  -4  -9   10.28    2.88
  -6   4   9   11.76    3.26
   6  -4  -8   13.04    2.40
   6  -4  -8   20.70    3.91
   6  -4  -8   20.87    3.96
   6   4  -8   17.15    3.29
   6   4  -8   18.43    3.45
  -6   4   8   17.56    3.77
   6  -4  -7    6.69    1.69
   6  -4  -7    4.17    1.45
   6  -4  -7    6.87    2.45
   6   4  -7    4.93    2.02
   6   4  -7    5.72    2.02
  -6   4   7    5.47    2.22
   6  -4  -6    8.83    1.97
   6  -4  -6   11.63    2.67
   6  -4  -6    5.68    2.88
   6   4  -6    6.49    2.29
   6   4  -6    8.52    2.28
  -6   4   6    6.39    2.54
   6  -4  -5  162.67   16.17
   6  -4  -5  162.89   16.59
   6   4  -5  146.33   14.52
   6  -4  -5  151.25   13.13
   6  -4  -4    0.26    0.85
   6  -4  -4    0.26    0.68
   6  -4  -4    0.02    1.01
   6  -4  -3  214.94   17.85
   6  -4  -3  211.01   20.47
   6  -4  -3  222.65   21.40
   6  -4  -2    4.14    1.71
   6  -4  -2    5.11    1.86
   6  -4  -2    3.56    1.96
   6  -4  -2    3.24    1.98
   6  -4  -1   13.75    3.36
   6  -4  -1   15.14    2.09
   6  -4  -1   13.71    2.32
   6  -4  -1   14.95    3.41
   6  -4   0   16.47    3.43
   6  -4   0   15.26    3.05
   6  -4   0   13.31    2.93
   6  -4   0   15.66    3.30
   6  -4   1  140.28   12.83
   6  -4   1  121.17   11.07
   6  -4   1  130.82   12.25
   6   4   1  136.21   10.96
   6  -4   2    0.18    0.84
   6  -4   2   -0.19    0.78
   6   4   2    0.20    0.69
   6   4   2    2.54    0.93
   6  -4   2   -0.46    0.82
   6  -4   3   30.24    4.58
   6  -4   3   31.98    4.77
   6  -4   3   31.43    4.31
   6   4   3   30.48    3.91
   6   4   3   29.23    5.30
   6  -4   4   15.31    3.10
   6  -4   4   19.90    3.42
   6   4   4   16.37    2.81
   6   4   4   15.27    3.42
  -6   4  -4   15.50    5.42
   6  -4   5    0.89    1.16
   6  -4   5    0.51    1.28
   6   4   5    1.75    0.72
   6   4   5    0.27    1.20
  -6   4  -5    1.04    1.80
   6  -4   6   89.72    8.96
   6  -4   6   97.71   10.08
   6   4   6   75.86    8.64
   6   4   6   76.12    9.26
  -6   4  -6   78.07   13.57
   6  -4   7   42.08    5.52
   6   4   7   35.53    5.06
   6   4   7   33.97    5.33
   6  -4   7   36.16    4.93
  -6   4  -7   28.24    7.88
   6  -4   8   27.40    3.97
   6  -4   8   29.97    4.09
   6   4   8   24.29    3.97
   6   4   8   19.95    4.38
  -6   4  -8   24.05    5.71
   6  -4   9   61.97    6.65
   6  -4   9   59.96    5.78
   6   4   9   61.97    7.02
   6   4   9   56.32    7.81
  -6   4  -9   63.57    9.96
   6  -4  10   -0.10    0.94
   6   4  10    3.18    1.03
   6   4  10   -0.35    1.26
  -6   4 -10    0.41    1.30
   6  -4  11   18.94    2.82
   6   4  11   16.98    3.16
   6   4  11   14.04    3.83
  -6   4 -11   14.73    3.76
   6   4  12    3.21    1.33
   6   4  12    1.19    1.73
   6  -4  12    2.29    1.19
   6  -4  13   18.01    2.66
   6   4  13   19.15    3.05
   6   4  13   13.00    3.83
   6  -4  14    0.37    0.45
   6  -4  14   -0.21    0.48
   6   4  14   -0.22    0.51
   6   4  14    0.15    0.68
   6  -4  15    7.63    1.43
   6  -4  15    6.98    1.62
   6   4  15    6.83    1.71
   6   4  15   -0.48    2.16
   6  -4  16    9.99    1.66
   6  -4  16    8.23    1.86
   6   4  16   11.70    1.82
   6   4  16   -0.16    2.34
   6  -4  17   -0.02    0.49
   6   4  17   -0.36    0.55
   6   4  17    0.10    0.64
   6  -4  18    2.04    1.07
   6   4  18    3.90    1.00
   6   5 -18   26.07    3.12
  -6   5  18   20.05    3.63
   6  -5 -17    2.24    1.26
   6   5 -17    4.16    1.14
   6   5 -17   -0.16    1.16
  -6   5  17    1.98    1.37
   6  -5 -16   29.25    3.74
   6   5 -16   29.30    3.83
   6  -5 -16   29.02    4.26
  -6   5  16   26.15    4.57
   6  -5 -15    8.15    2.32
   6  -5 -15   11.67    2.21
   6   5 -15   10.69    2.16
   6   5 -15    2.68    2.64
  -6   5  15   11.41    2.89
   6  -5 -14   10.64    2.33
   6   5 -14    9.66    2.29
   6   5 -14    0.03    2.15
   6  -5 -14   11.89    2.59
  -6   5  14   10.34    2.77
   6  -5 -13    4.92    2.01
   6  -5 -13    5.14    1.91
   6   5 -13    4.60    1.79
   6   5 -13    4.36    2.10
  -6   5  13    5.81    2.27
   6  -5 -12    5.49    1.83
   6  -5 -12    4.57    1.86
   6   5 -12    4.50    1.70
   6   5 -12   -0.44    1.72
  -6   5  12    4.68    2.04
   6  -5 -11    0.26    1.15
   6  -5 -11    0.75    1.28
   6   5 -11    3.78    1.14
   6   5 -11    0.65    1.01
   6   5 -11   -0.37    1.10
  -6   5  11    1.46    1.39
   6  -5 -10   19.93    3.15
   6  -5 -10   20.64    3.18
   6   5 -10   17.34    2.79
   6   5 -10    0.03    2.39
   6   5 -10    2.94    2.55
  -6   5  10   14.88    3.10
   6  -5  -9   17.85    2.91
   6  -5  -9   17.77    3.05
   6   5  -9   14.85    2.72
   6   5  -9   -0.02    2.81
   6   5  -9   -0.11    2.27
  -6   5   9   14.97    3.09
   6  -5  -8    0.29    1.15
   6  -5  -8    0.33    0.78
   6  -5  -8    0.61    1.13
   6   5  -8    0.39    1.01
   6   5  -8    0.05    1.02
  -6   5   8    3.43    1.16
   6  -5  -7    0.46    0.68
   6  -5  -7   -0.43    0.97
   6   5  -7    0.13    0.82
   6   5  -7    0.02    0.81
   6  -5  -7    1.03    0.96
  -6   5   7    0.49    0.94
   6  -5  -6   18.72    2.78
   6  -5  -6   16.90    3.27
   6  -5  -6   18.10    3.56
   6   5  -6   15.33    2.94
   6   5  -6   -0.04    2.62
   6  -5  -5    1.49    1.13
   6  -5  -5    2.80    1.31
   6  -5  -5    1.43    1.47
   6   5  -5    0.54    1.18
   6  -5  -4    2.96    1.19
   6  -5  -4    0.10    1.24
   6  -5  -4    0.08    0.99
   6  -5  -3   21.73    2.84
   6  -5  -3   22.81    4.61
   6  -5  -3   23.53    3.85
   6  -5  -2    5.71    1.85
   6  -5  -2    5.57    2.00
   6  -5  -2    5.35    2.29
   6  -5  -1    7.54    2.13
   6  -5  -1    7.54    2.14
   6  -5  -1    6.60    2.41
   6   5  -1    5.37    2.04
   6  -5   0    8.30    1.68
   6  -5   0    7.28    2.32
   6  -5   0    8.02    2.53
   6   5   0    8.75    2.30
   6  -5   1   26.94    4.48
   6  -5   1   29.72    4.56
   6   5   1   23.21    4.50
   6  -5   1   31.94    4.33
   6  -5   2    5.07    1.95
   6  -5   2    6.22    1.85
   6  -5   2    3.04    1.89
   6   5   2    3.85    1.85
   6  -5   3   78.67    8.58
   6  -5   3   70.83    7.95
   6   5   3   75.89    7.16
   6   5   3   66.94    8.21
  -6   5  -3   64.56   12.40
   6  -5   4   48.65    5.61
   6  -5   4   42.96    5.78
   6   5   4   43.03    5.25
   6   5   4   40.50    5.70
  -6   5  -4   40.33    8.74
   6  -5   5   18.55    3.37
   6  -5   5   19.41    3.50
   6   5   5   20.62    3.26
   6   5   5   17.88    3.62
  -6   5  -5   19.28    6.08
   6  -5   6    4.24    1.54
   6  -5   6    3.17    1.75
   6   5   6    5.12    1.64
   6   5   6    3.48    1.73
  -6   5  -6    2.70    2.95
   6  -5   7    3.45    1.78
   6  -5   7    7.05    1.89
   6   5   7    4.93    1.83
   6   5   7    3.24    1.99
  -6   5  -7    8.55    3.12
   6  -5   8   24.43    3.32
   6  -5   8   21.88    3.54
   6   5   8   20.51    3.64
   6   5   8   18.95    3.94
  -6   5  -8   20.89    5.44
   6  -5   9   10.26    2.19
   6   5   9    9.74    2.37
   6   5   9    9.73    2.62
  -6   5  -9    7.89    3.15
   6  -5  10    2.37    0.93
   6   5  10    0.25    0.93
   6   5  10    0.41    1.21
  -6   5 -10    0.20    1.23
   6  -5  11    2.64    1.20
   6   5  11    2.40    1.38
   6   5  11    3.53    1.79
  -6   5 -11    3.11    1.71
   6  -5  12    5.10    1.50
   6   5  12    6.11    1.64
   6   5  12    5.07    2.23
  -6   5 -12    5.43    2.07
   6  -5  13    8.02    1.64
   6   5  13    7.61    2.00
   6   5  13    4.82    2.52
   6  -5  14    1.94    0.81
   6   5  14    0.26    0.94
   6   5  14    0.71    1.30
   6  -5  15    3.24    0.99
   6  -5  15    2.27    1.12
   6   5  15    2.38    1.12
   6   5  15    1.05    1.48
   6  -5  16    0.36    0.73
   6   5  16    2.14    0.79
   6   5  16    0.21    1.05
   6  -5  17    0.31    1.15
   6   5  17    3.01    0.90
   6   6 -17   -0.06    0.46
   6   6 -16    8.48    1.84
  -6   6  16    7.03    2.31
   6  -6 -15   10.97    1.77
   6   6 -15   10.98    1.98
   6   6 -15   -0.24    2.02
   6  -6 -15    7.88    2.04
  -6   6  15    9.08    2.38
   6  -6 -14   34.48    4.01
   6   6 -14   33.32    4.37
   6  -6 -14   32.62    4.60
  -6   6  14   28.92    5.03
   6  -6 -13   10.62    2.38
   6  -6 -13   12.53    2.14
   6   6 -13   10.57    2.22
   6   6 -13    0.34    2.24
  -6   6  13    7.91    2.77
   6  -6 -12   11.16    2.53
   6  -6 -12   15.87    2.42
   6   6 -12   11.68    2.41
   6   6 -12    0.36    2.14
  -6   6  12   12.61    3.00
   6  -6 -11    0.09    0.88
   6  -6 -11    0.78    0.86
   6   6 -11    0.30    0.82
   6   6 -11    0.74    0.87
  -6   6  11    0.20    1.02
   6  -6 -10   14.91    2.86
   6  -6 -10   17.26    2.87
   6   6 -10   13.34    2.54
   6   6 -10    0.89    3.29
  -6   6  10   13.68    3.39
   6  -6  -9    0.09    0.54
   6  -6  -9    0.47    0.80
   6  -6  -9   -0.07    0.86
   6   6  -9    0.08    0.74
   6   6  -9    0.75    0.85
  -6   6   9    0.45    0.96
   6  -6  -8   35.52    4.98
   6  -6  -8   36.44    5.43
   6   6  -8   32.31    4.62
  -6   6   8   33.89    5.80
   6  -6  -7    5.98    1.82
   6  -6  -7    5.92    1.89
   6   6  -7    1.02    1.58
   6   6  -7    0.07    2.07
   6  -6  -7    5.06    1.51
  -6   6   7    8.99    2.16
   6  -6  -6    4.20    1.35
   6  -6  -6    3.45    1.64
   6   6  -6   -0.26    1.38
   6   6  -6    0.00    1.54
   6  -6  -6    5.91    1.53
   6  -6  -5    0.27    0.78
   6  -6  -5   -0.23    0.58
   6   6  -5    2.66    0.96
   6   6  -5    0.07    0.89
   6  -6  -5   -0.23    0.95
   6  -6  -4    8.79    2.08
   6  -6  -4    9.15    2.08
   6  -6  -4    9.46    2.36
   6   6  -4   -0.01    1.97
   6  -6  -3   85.10    8.83
   6  -6  -3   84.81    9.15
   6  -6  -3   87.69    9.73
   6  -6  -2   73.31    7.61
   6  -6  -2   74.42    8.24
   6  -6  -2   69.17    8.62
   6  -6  -1  134.77   13.50
   6  -6  -1  136.78   12.53
   6  -6  -1  136.47   13.28
   6  -6   0   19.28    3.64
   6  -6   0   20.41    3.52
   6  -6   0   20.35    3.08
   6   6   0   20.40    3.60
   6  -6   1    7.70    2.04
   6  -6   1    9.59    1.95
   6   6   1   -0.01    1.88
   6   6   1    7.92    2.15
  -6   6  -1   12.14    3.85
   6  -6   2   -0.32    0.81
   6   6   2    0.04    0.82
   6   6   2   -0.02    0.88
   6  -6   2    0.62    0.81
  -6   6  -2    5.96    1.61
   6  -6   3   52.09    6.50
   6  -6   3   64.07    5.85
   6   6   3   57.42    7.03
  -6   6  -3   57.74   11.78
   6  -6   4    7.11    1.81
   6  -6   4    9.10    1.88
   6   6   4    2.38    1.51
   6   6   4    0.05    1.85
   6   6   4    8.49    1.93
  -6   6  -4    5.87    3.67
   6  -6   5   18.14    2.37
   6  -6   5   16.79    2.49
   6   6   5    0.56    1.94
   6   6   5    0.00    2.31
   6   6   5   12.63    2.53
  -6   6  -5   19.14    4.32
   6  -6   6   -0.11    0.48
   6  -6   6   -0.05    0.67
   6   6   6    0.46    0.63
   6   6   6    0.81    0.77
  -6   6  -6    0.78    1.25
   6  -6   7    1.57    0.61
   6  -6   7   -0.02    0.78
   6   6   7    0.15    0.85
   6   6   7    0.06    1.00
  -6   6  -7   -0.13    1.40
   6  -6   8    0.33    0.86
   6   6   8    1.97    0.88
   6   6   8    0.02    1.13
  -6   6  -8    0.13    1.31
   6  -6   9   34.02    4.18
   6   6   9   33.29    4.23
   6   6   9   30.59    5.03
  -6   6  -9   27.91    5.68
   6  -6  10    0.14    0.48
   6   6  10   -0.39    0.57
   6   6  10   -0.36    0.73
  -6   6 -10    1.04    0.71
   6  -6  11   22.08    2.96
   6   6  11   22.67    3.31
   6   6  11   20.58    4.07
  -6   6 -11   21.18    3.96
   6  -6  12    1.73    0.88
   6   6  12    2.74    1.07
   6   6  12    1.44    1.38
  -6   6 -12    0.19    1.34
   6  -6  13   23.39    2.66
   6   6  13   21.97    3.02
   6   6  13   20.90    3.78
  -6   6 -13   16.90    3.38
   6   6  14   10.88    2.10
   6   6  14    9.95    3.02
   6  -6  15    3.74    1.19
   6   6  15    4.78    1.36
   6   6  15    3.10    1.58
   6   7 -15    6.89    1.62
   6   7 -14   12.89    2.18
  -6   7  14    9.76    2.71
   6  -7 -13    0.29    0.86
   6   7 -13    2.73    0.98
  -6   7  13    1.02    1.21
   6  -7 -12    7.89    1.61
   6   7 -12    7.64    1.78
   6   7 -12    0.95    2.24
   6  -7 -12    4.65    1.77
  -6   7  12    5.35    2.12
   6  -7 -11    0.11    1.01
   6  -7 -11    0.52    0.67
   6   7 -11    0.32    0.73
   6   7 -11    0.31    0.77
  -6   7  11    0.19    0.96
   6  -7 -10    0.22    1.16
   6  -7 -10    2.31    0.85
   6  -7 -10    2.23    1.08
   6   7 -10    2.90    1.05
   6   7 -10    0.17    1.17
  -6   7  10    0.48    1.37
   6  -7  -9    2.69    1.17
   6  -7  -9    1.84    0.89
   6  -7  -9    1.95    1.11
   6   7  -9    0.09    1.00
   6   7  -9    0.24    1.16
  -6   7   9    2.69    1.41
   6  -7  -8    0.18    0.90
   6  -7  -8    1.64    0.72
   6  -7  -8   -0.28    0.90
   6   7  -8    0.01    0.83
   6   7  -8    0.22    0.99
  -6   7   8    2.57    1.13
   6  -7  -7   10.38    1.81
   6  -7  -7    9.47    1.84
   6  -7  -7   13.47    2.13
   6   7  -7   -0.15    1.64
   6   7  -7    0.11    1.96
   6  -7  -6    6.29    1.49
   6  -7  -6    6.01    1.51
   6  -7  -6    5.89    1.72
   6   7  -6    0.09    1.45
   6   7  -6    0.07    1.62
   6  -7  -5    0.01    0.96
   6  -7  -5    0.05    1.06
   6   7  -5    2.41    1.01
   6   7  -5    0.16    1.03
   6   7  -5    2.18    0.85
   6  -7  -5   -0.09    0.97
   6  -7  -4   23.76    3.56
   6  -7  -4   22.17    3.59
   6  -7  -4   26.17    3.97
   6  -7  -3    0.21    0.67
   6  -7  -3    0.31    0.68
   6   7  -3    0.00    0.70
   6   7  -3    0.18    0.59
   6  -7  -2   17.95    2.16
   6  -7  -2   13.81    2.16
   6   7  -2   -0.01    2.17
   6   7  -2    0.13    1.81
  -6   7   2   22.94    4.52
   6  -7  -1    7.27    1.58
   6  -7  -1    7.11    1.55
   6   7  -1    0.00    1.69
   6   7  -1   -0.15    1.50
  -6   7   1   13.89    3.53
   6  -7   0    0.48    0.73
   6  -7   0    0.18    0.68
   6   7   0   -0.01    0.78
   6   7   0    0.16    0.72
  -6   7   0    1.50    1.67
   6  -7   1    0.30    1.04
   6  -7   1    2.62    1.04
   6   7   1    0.00    1.14
   6   7   1    2.52    1.09
  -6   7  -1   -0.23    2.33
   6  -7   2    1.81    1.11
   6  -7   2    2.68    1.18
   6   7   2    0.53    1.30
   6   7   2    2.17    1.25
  -6   7  -2    0.68    2.51
   6  -7   3   18.31    2.78
   6  -7   3   22.45    2.87
   6   7   3    0.68    2.92
   6   7   3   15.67    2.90
  -6   7  -3   16.04    5.22
   6  -7   4    5.32    1.52
   6  -7   4    5.25    1.56
   6   7   4    0.88    1.84
   6   7   4    4.60    1.73
  -6   7  -4    5.65    3.15
   6  -7   5   20.32    2.88
   6  -7   5   21.83    2.81
   6   7   5    0.95    3.70
   6   7   5   15.93    3.15
  -6   7  -5   14.91    4.75
   6  -7   6   19.55    2.12
   6   7   6    0.08    1.89
   6   7   6    0.14    2.42
   6   7   6   14.83    2.62
  -6   7  -6   17.37    3.60
   6  -7   7   17.63    2.06
   6   7   7   -0.05    1.86
   6   7   7    0.27    2.33
   6   7   7   14.96    2.59
  -6   7  -7   16.22    3.05
   6  -7   8    3.88    1.15
   6   7   8    2.03    1.24
   6   7   8    1.15    1.40
   6   7   8    2.41    1.54
  -6   7  -8    2.85    1.68
   6  -7   9    4.89    1.64
   6   7   9   14.52    1.91
   6   7   9    4.41    2.36
  -6   7  -9    6.52    2.48
   6  -7  10    0.21    0.50
   6   7  10   -0.03    0.57
   6   7  10    0.06    0.78
  -6   7 -10    0.46    0.76
   6  -7  11    1.67    0.64
   6   7  11   -0.04    0.81
   6   7  11    0.35    0.98
  -6   7 -11   -0.19    0.98
   6  -7  12    1.66    0.68
   6   7  12    0.51    0.81
   6   7  12    0.39    1.01
  -6   7 -12    0.15    0.97
   6   7  13   14.01    2.74
   6  -7  14    0.09    0.40
   6   8 -12   -0.17    0.58
   6   8 -11   -0.08    0.49
   6   8 -11    0.21    0.49
   6  -8 -10   -0.10    0.43
   6   8 -10    0.13    0.54
   6   8 -10    0.40    0.58
  -6   8  10    0.11    1.00
   6  -8  -9    0.00    0.61
   6   8  -9   -0.08    0.74
   6   8  -9    0.27    0.81
  -6   8   9    5.88    1.54
   6  -8  -8   -0.12    0.58
   6   8  -8    0.06    0.79
   6   8  -8   -0.01    0.81
  -6   8   8    3.80    1.32
   6  -8  -7   -0.24    0.70
   6   8  -7    0.53    0.74
   6   8  -7    0.02    0.85
  -6   8   7    4.78    1.56
   6  -8  -6    0.83    0.98
   6   8  -6    1.94    0.90
   6   8  -6   -0.03    1.03
   6   8  -6   -0.45    0.85
   6  -8  -6    2.23    0.92
  -6   8   6    1.28    1.84
   6  -8  -5    1.40    1.01
   6  -8  -5    2.88    1.05
   6   8  -5    0.06    1.13
   6   8  -5    0.26    0.89
  -6   8   5    2.29    2.27
   6  -8  -4   13.32    1.82
   6  -8  -4   13.02    1.93
   6   8  -4    0.06    1.88
   6   8  -4   -0.03    1.61
  -6   8   4   13.16    3.84
   6  -8  -3    3.21    1.09
   6  -8  -3    3.86    1.22
   6   8  -3    0.00    1.26
   6   8  -3   -0.08    1.05
  -6   8   3    5.62    2.55
   6  -8  -2   12.01    1.75
   6  -8  -2   14.22    1.95
   6   8  -2   -0.01    1.82
   6   8  -2   -0.26    1.52
  -6   8   2   14.25    4.05
   6  -8  -1    5.62    1.31
   6   8  -1    0.00    1.32
   6   8  -1    0.47    1.12
   6  -8  -1    2.67    1.27
  -6   8   1    8.86    2.80
   6  -8   0   15.62    2.00
   6  -8   0   15.22    2.06
   6   8   0   -0.01    2.03
   6   8   0    0.20    1.79
  -6   8   0   13.35    3.96
   6  -8   1    1.95    0.88
   6  -8   1    1.92    0.93
   6   8   1    0.03    1.04
   6   8   1    0.28    0.94
  -6   8  -1   -0.42    1.89
   6  -8   2   43.06    4.91
   6  -8   2   42.17    4.34
   6   8   2   35.84    4.95
  -6   8  -2   46.05    8.63
   6  -8   3   -0.03    0.89
   6   8   3    0.12    1.03
   6   8   3    2.71    1.02
  -6   8  -3    3.48    1.66
   6  -8   4    4.55    1.23
   6   8   4    0.08    1.36
   6   8   4    2.92    1.50
  -6   8  -4    5.93    2.32
   6  -8   5   -0.24    0.51
   6   8   5    0.51    0.78
   6   8   5    0.21    0.69
  -6   8  -5    0.82    0.92
   6  -8   6   12.69    1.82
   6   8   6    0.74    2.46
   6   8   6   12.60    2.49
  -6   8  -6   11.98    2.98
   6  -8   7    3.74    1.09
   6   8   7    0.77    1.85
   6   8   7    4.42    1.58
  -6   8  -7    2.80    1.77
   6  -8   8   25.27    2.75
   6   8   8   23.02    3.73
  -6   8  -8   22.57    4.03
   6  -8   9   -0.08    0.62
   6   8   9    0.71    1.04
   6   8   9    0.08    0.89
  -6   8  -9    2.59    0.91
   6  -8  10    2.52    0.85
   6   8  10    0.22    1.04
  -6   8 -10    0.15    1.01
   6   8  11    0.13    0.54
  -6   8 -11   -0.07    0.40
   6   9  -8    0.24    0.54
   6  -9  -8    0.07    0.47
   6   9  -7    0.80    0.95
  -6   9   7    0.03    1.38
   6  -9  -6    1.71    0.99
   6   9  -6    0.36    1.18
   6   9  -6    2.54    0.95
  -6   9   6    9.42    2.71
   6  -9  -5    0.29    0.55
   6   9  -5    0.25    0.62
   6   9  -5    0.01    0.53
  -6   9   5   -0.16    1.13
   6  -9  -4    7.02    1.20
   6   9  -4    0.30    1.29
   6   9  -4    0.20    1.02
  -6   9   4    4.77    2.42
   6  -9  -3    4.95    1.16
   6   9  -3    0.30    1.24
   6   9  -3    1.74    1.05
  -6   9   3    4.93    2.46
   6  -9  -2   22.83    2.97
  -6   9   2   21.22    5.49
   6  -9  -1    7.79    1.36
   6   9  -1    0.30    1.49
   6   9  -1    2.09    1.56
  -6   9   1    8.56    2.63
   6  -9   0    8.34    1.21
   6   9   0    0.26    1.31
   6   9   0    0.10    1.21
  -6   9   0    9.83    2.53
   6  -9   1    0.86    0.65
   6   9   1    0.22    0.75
   6   9   1    0.22    0.70
  -6   9  -1    0.63    1.19
   6  -9   2    8.45    1.36
   6   9   2    0.13    1.62
   6   9   2    5.68    1.59
  -6   9  -2    6.53    2.53
   6  -9   3    2.43    0.85
   6   9   3    0.10    1.07
   6   9   3    0.95    1.02
  -6   9  -3    4.48    1.64
   6  -9   4    6.74    1.30
   6   9   4    0.16    1.50
   6   9   4    6.35    1.57
  -6   9  -4    7.93    2.27
   6  -9   5    1.36    0.68
   6   9   5    0.15    0.91
   6   9   5    0.40    0.91
  -6   9  -5    3.28    1.31
   6  -9   6    1.84    0.68
   6   9   6   -0.01    0.96
  -6   9  -6    0.15    1.49
   6  -9   7    0.45    0.58
   6   9   7    0.35    0.86
  -6   9  -7    2.14    0.98
   6   9   8    0.36    0.87
  -6   9  -8    0.39    0.76
   6 -10  -3    2.56    0.96
   6 -10  -2   10.91    1.78
   6 -10  -1   12.35    1.80
   6 -10   0   13.60    2.25
   6 -10   1    1.63    0.76
   7   0 -17   12.96    2.19
   7   0 -16   -0.03    0.92
   7   0 -16   -0.02    0.85
  -7   0  16    2.06    0.82
   7   0 -15   22.85    3.34
   7   0 -15   22.58    3.48
  -7   0  15   13.23    2.90
   7   0 -14    0.19    0.65
   7   0 -14   -0.01    0.67
  -7   0  14    0.03    0.62
   7   0 -13   18.03    3.37
   7   0 -13   18.80    3.58
  -7   0  13   13.79    2.93
   7   0 -12    0.10    0.35
   7   0 -12    0.07    0.62
   7   0 -12   -0.30    0.67
   7   0 -11   40.67    5.59
   7   0 -11   40.60    5.98
   7   0 -10    3.12    1.16
   7   0 -10    0.06    1.02
   7   0 -10    0.50    1.25
   7   0  -9    2.51    1.53
   7   0  -9    3.16    1.55
   7   0  -8    0.25    0.65
   7   0  -8   -0.14    0.62
   7   0  -7   82.82    9.24
   7   0  -7   82.25    8.97
   7   0  -6    0.16    0.91
   7   0  -6    0.59    0.84
   7   0  -5   81.15    9.23
   7   0  -5   82.48    8.72
   7   0  -4   -0.11    0.54
   7   0  -4    0.03    0.41
   7   0  -3    2.37    1.18
   7   0  -3    0.20    1.10
   7   0  -2    0.16    1.22
   7   0  -2    2.76    1.19
   7   0  -2    2.08    0.99
   7   0  -1   -0.13    0.39
   7   0  -1    0.16    0.42
   7   0   0    0.78    0.93
   7   0   0    2.40    1.00
   7   0   0    0.18    0.85
   7   0   1   18.98    3.25
   7   0   1   22.02    3.40
   7   0   2    3.08    1.43
   7   0   2    3.28    1.36
   7   0   3   41.18    5.09
   7   0   3   41.06    5.05
   7   0   4    0.60    0.83
   7   0   4    0.57    0.84
   7   0   5  124.68    6.07
   7   0   5    0.42    3.44
   7   0   6    2.86    1.10
   7   0   6    0.06    0.98
   7   0   7   19.11    1.94
   7   0   7    0.68    1.06
   7   0   8    0.13    0.65
   7   0   9  126.36   11.20
   7   0  10   -0.18    0.67
   7   0  11   55.04    5.87
   7   0  12   -0.29    0.65
   7   0  13    7.42    1.57
   7   0  14    1.54    0.81
   7   0  15    4.31    1.15
   7  -1 -16    5.41    1.59
   7  -1 -16    5.99    1.36
   7   1 -16    0.10    1.44
   7   1 -16    5.82    1.43
  -7   1  16    3.73    1.35
  -7  -1  16    1.75    1.28
   7  -1 -15    0.05    0.77
   7  -1 -15    0.35    0.77
   7   1 -15    0.78    0.58
   7   1 -15   -0.05    0.82
   7   1 -15    0.26    0.74
  -7   1  15   -0.29    0.73
   7  -1 -14    8.80    1.94
   7  -1 -14    8.73    1.85
   7   1 -14    0.14    1.39
   7   1 -14    0.31    1.83
   7   1 -14    8.65    1.89
  -7   1  14    6.13    2.24
   7  -1 -13   18.71    3.62
   7  -1 -13   21.07    3.62
   7   1 -13   13.02    3.38
   7   1 -13   17.32    3.66
  -7   1  13   17.57    4.00
   7  -1 -12    3.93    1.84
   7  -1 -12    3.64    1.81
   7   1 -12    2.03    1.40
   7   1 -12    3.92    1.90
   7   1 -12    4.04    2.07
  -7   1  12    4.70    1.69
   7  -1 -11    6.71    1.75
   7  -1 -11    3.12    1.70
   7   1 -11    2.40    1.66
   7   1 -11    2.80    1.57
   7   1 -11    1.08    1.69
  -7   1  11    2.80    1.67
   7  -1 -10    4.48    1.91
   7  -1 -10    5.79    1.94
   7   1 -10    0.07    1.47
   7   1 -10    6.40    1.84
   7   1 -10    4.64    1.87
  -7   1  10    5.45    1.84
   7  -1  -9    0.34    0.90
   7   1  -9   -0.17    0.83
   7   1  -9    0.64    0.86
   7  -1  -9    0.45    0.90
   7  -1  -8    2.52    1.53
   7  -1  -8    3.04    1.60
   7   1  -8    2.78    1.55
   7   1  -8    3.35    1.58
   7  -1  -7    1.96    1.42
   7   1  -7    2.64    1.30
   7   1  -7    0.20    1.24
   7  -1  -7    2.40    1.34
   7  -1  -6    8.83    2.41
   7  -1  -6    8.52    2.48
   7   1  -6    7.26    2.30
   7   1  -6    8.85    2.13
   7  -1  -5   25.22    3.98
   7   1  -5   22.53    3.60
   7   1  -5   20.34    3.47
   7  -1  -5   21.84    4.11
   7  -1  -4   20.11    3.69
   7  -1  -4   21.22    3.77
   7   1  -4   21.19    3.54
   7  -1  -3    2.31    1.32
   7  -1  -3    6.79    1.96
   7  -1  -3    8.91    1.79
   7   1  -3    7.60    1.69
   7   1  -3   -0.11    1.45
   7  -1  -2    0.00    1.65
   7  -1  -2   10.17    1.99
   7   1  -2   10.30    1.89
   7   1  -2    2.94    1.69
   7  -1  -2   12.44    2.11
   7  -1  -1    0.56    0.56
   7  -1  -1   -0.58    0.67
   7   1  -1    0.00    0.59
   7  -1  -1    0.17    0.62
   7  -1   0    2.09    1.00
   7  -1   0    3.04    1.16
   7  -1   0    1.64    1.04
   7   1   0    0.32    0.88
   7   1   0   -0.02    0.98
   7  -1   1   24.33    3.58
   7   1   1   18.08    3.11
   7  -1   1   21.39    3.41
   7  -1   2    1.40    1.19
   7  -1   2    3.19    1.22
   7  -1   2    1.75    0.99
   7   1   2    2.64    1.12
   7   1   2    0.29    1.14
   7  -1   3   15.95    2.99
   7  -1   3   15.63    3.10
   7   1   3   16.71    2.84
   7  -1   4    5.43    1.63
   7  -1   4    2.64    1.55
   7   1   4    3.18    1.47
   7   1   4    3.12    1.92
   7  -1   5    3.18    0.98
   7  -1   5    0.13    0.97
   7   1   5    0.17    0.66
   7  -1   6   10.09    2.31
   7   1   6    8.52    2.29
   7  -1   6    9.43    2.25
   7  -1   7   13.25    2.66
   7  -1   7   14.32    2.68
   7   1   7   14.70    2.73
   7   1   8   -0.08    0.41
   7  -1   8    0.55    0.63
   7  -1   9    0.73    0.83
   7   1   9    0.50    0.87
   7  -1  10   -0.03    0.51
   7   1  10   -0.04    0.52
   7  -1  11    2.08    1.14
   7   1  11    2.52    1.17
   7  -1  12   10.97    2.16
   7   1  12   11.58    2.17
   7  -1  13    5.05    1.24
   7   1  13    2.96    1.29
   7  -1  14   15.27    2.15
   7   1  14   14.22    2.19
   7  -1  15    0.11    0.44
   7   1  15    0.18    0.48
   7  -2 -16    0.10    1.12
   7  -2 -16    1.76    1.04
   7   2 -16    3.46    1.01
   7  -2 -15    5.37    1.70
   7  -2 -15    3.11    1.31
   7   2 -15    0.16    1.19
   7   2 -15   -0.12    1.26
   7   2 -15    4.32    1.25
  -7   2  15    4.02    1.47
   7  -2 -14   11.28    2.36
   7  -2 -14   16.69    2.26
   7   2 -14    0.04    1.52
   7   2 -14    0.03    2.68
   7   2 -14   12.50    2.17
  -7   2  14    9.36    2.14
   7  -2 -13    5.61    1.92
   7  -2 -13    9.76    1.86
   7   2 -13   -0.07    1.39
   7   2 -13   -0.14    1.77
   7   2 -13    7.74    1.83
  -7   2  13    5.48    1.82
   7  -2 -12    4.16    1.84
   7  -2 -12    7.69    1.87
   7   2 -12    0.14    1.23
   7   2 -12    0.87    1.62
   7   2 -12    7.42    1.66
  -7   2  12    4.68    1.77
   7  -2 -11   10.28    2.43
   7  -2 -11   12.04    2.40
   7   2 -11    0.13    2.12
   7   2 -11    0.50    2.00
   7   2 -11   12.62    2.28
  -7   2  11    9.71    2.42
   7  -2 -10    0.33    1.07
   7  -2 -10   -0.21    1.14
   7   2 -10    2.26    0.85
   7   2 -10    0.72    1.02
   7   2 -10   -0.02    0.96
   7  -2  -9   12.33    2.32
   7   2  -9    1.36    2.25
   7   2  -9    0.25    1.86
   7  -2  -9   14.71    2.43
   7  -2  -8    0.13    1.08
   7  -2  -8    0.72    1.17
   7   2  -8    1.95    1.02
   7   2  -8    0.06    0.90
   7   2  -7    1.96    1.01
   7   2  -7    0.05    0.88
   7  -2  -6   -0.72    0.78
   7  -2  -6   -0.26    0.86
   7   2  -6    0.03    0.68
   7   2  -6    0.09    0.62
   7   2  -5   -0.06    1.04
   7   2  -5    1.93    0.92
   7  -2  -4   -0.18    1.54
   7  -2  -4   17.91    2.30
   7  -2  -4   18.15    2.34
   7   2  -4    0.01    1.81
   7  -2  -3    0.15    1.45
   7  -2  -3   10.97    1.99
   7  -2  -3   11.25    2.03
   7   2  -3    2.46    1.61
   7  -2  -2   13.32    2.44
   7  -2  -2   10.97    2.74
   7  -2  -2   10.76    2.68
   7  -2  -1    0.67    1.13
   7  -2  -1    4.62    1.35
   7  -2  -1    0.89    1.22
   7  -2   0   11.57    1.91
   7  -2   0   10.50    2.78
   7  -2   0   12.72    2.43
   7  -2   1   49.07    6.25
   7  -2   1   51.36    5.66
   7  -2   1   53.80    6.00
   7  -2   2   66.75    7.30
   7  -2   2   54.40    6.07
   7  -2   2   73.56    7.51
   7  -2   3   52.95    6.07
   7  -2   3   58.24    6.53
   7   2   3   46.53    5.37
  -7   2  -3   44.29    9.08
   7  -2   4   24.98    3.91
   7   2   4   23.82    3.53
   7  -2   4   23.10    3.71
  -7   2  -4   20.96    6.40
   7  -2   5    9.11    2.19
   7  -2   5    9.08    2.42
   7   2   5    9.25    2.21
   7  -2   6    7.04    2.34
   7  -2   6    9.64    2.39
   7   2   6   10.24    2.23
   7  -2   7   73.55    7.88
   7  -2   7   84.86    8.17
   7   2   7   75.16    7.61
   7  -2   8   21.43    3.82
   7   2   8   24.16    3.40
   7  -2   9   45.96    4.22
   7   2   9   42.07    5.04
   7  -2  10    8.33    1.93
   7   2  10    8.43    2.05
   7  -2  11    2.98    1.18
   7   2  11    2.10    1.22
   7  -2  12    4.98    1.15
   7  -2  12    0.13    1.12
   7   2  12    4.46    1.24
   7  -2  13    3.06    0.92
   7  -2  13    0.96    0.91
   7   2  13    1.88    1.03
   7  -2  14    1.09    0.81
   7   2  14    1.90    0.85
   7   2  15    2.51    0.84
   7  -3 -15    3.43    1.27
   7  -3 -15    2.43    1.07
   7   3 -15    0.14    0.99
   7  -3 -14   20.83    3.25
   7  -3 -14   22.28    3.46
  -7   3  14   14.94    3.40
   7  -3 -13   22.08    2.81
   7  -3 -13   19.12    2.53
   7   3 -13   -0.03    2.21
   7   3 -13   -0.20    2.18
  -7   3  13   14.51    2.77
   7  -3 -12    1.52    1.22
   7  -3 -12    2.36    1.21
   7   3 -12    0.09    0.95
   7   3 -12   -0.03    1.12
  -7   3  12    2.73    1.26
   7  -3 -11    7.65    1.74
   7  -3 -11    3.46    1.83
   7   3 -11    2.71    1.35
   7   3 -11    0.09    1.45
  -7   3  11    4.22    1.78
   7  -3 -10    7.41    1.74
   7  -3 -10    3.92    1.78
   7   3 -10    0.06    1.35
   7   3 -10    2.75    1.45
   7  -3  -9    3.03    1.19
   7  -3  -9    0.29    1.27
   7   3  -9    0.09    1.02
   7  -3  -8    7.79    1.91
   7  -3  -8    6.78    2.06
   7   3  -8   -0.02    1.55
   7  -3  -7    2.55    1.22
   7  -3  -7    6.10    1.85
   7  -3  -6   20.28    3.72
   7  -3  -6   20.57    3.85
   7  -3  -5    9.77    2.03
   7  -3  -5   10.70    2.82
   7  -3  -4   12.12    2.32
   7  -3  -4   13.05    1.88
   7  -3  -4    1.84    1.71
   7  -3  -3    3.59    1.88
   7  -3  -3   14.59    2.54
   7  -3  -3   12.45    2.55
   7  -3  -2   26.15    3.75
   7  -3  -2   30.68    4.41
   7  -3  -2   26.82    4.06
   7  -3  -1    2.17    1.14
   7  -3  -1    2.76    1.34
   7  -3  -1    1.73    0.92
   7  -3   0   12.03    2.68
   7  -3   0   11.77    2.67
   7  -3   0   11.89    2.49
   7  -3   1   16.52    2.97
   7  -3   1   16.99    2.91
   7  -3   1   14.64    3.06
   7  -3   2    8.98    1.85
   7  -3   2    7.84    1.88
   7   3   2    2.20    1.54
   7  -3   3    0.97    0.89
   7  -3   3    0.31    0.96
   7   3   3    0.61    0.78
  -7   3  -3    0.29    1.49
   7  -3   4   80.28    8.11
   7  -3   4   80.09    8.31
  -7   3  -4   67.38   12.21
   7  -3   5    8.18    2.06
   7  -3   5   11.98    2.21
   7   3   5    2.39    1.78
  -7   3  -5   11.37    4.04
   7  -3   6    2.49    1.39
   7  -3   6    2.99    1.44
   7   3   6    2.77    1.33
  -7   3  -6    6.37    2.51
   7  -3   7    4.12    1.34
   7  -3   7    0.37    1.29
   7   3   7    3.29    1.28
   7  -3   8    0.25    0.73
   7   3   8    0.32    0.65
   7  -3   9    4.13    1.18
   7  -3   9    0.09    0.99
   7   3   9    3.76    1.22
   7  -3  10   12.09    1.69
   7  -3  10    0.02    1.36
   7   3  10   10.04    1.82
   7  -3  11    0.18    0.82
   7  -3  11    0.02    0.72
   7   3  11    3.46    0.88
   7  -3  12   13.80    2.07
   7   3  12   13.10    2.11
   7  -3  13    1.73    0.86
   7   3  13    1.55    0.87
   7   3  14    8.64    1.59
   7  -4 -14   31.75    4.13
   7  -4 -14   32.91    3.80
   7  -4 -13    0.08    1.03
   7  -4 -13    0.37    0.97
   7   4 -13    2.90    0.96
   7  -4 -12   23.98    3.24
   7  -4 -12   25.12    3.35
   7   4 -12    4.62    3.35
   7  -4 -11    0.00    0.63
   7  -4 -11    0.15    0.63
   7   4 -11    0.09    0.52
   7  -4 -10    1.40    1.30
   7   4 -10    0.07    1.06
   7  -4 -10    4.58    1.27
   7  -4  -9   12.42    2.90
   7  -4  -9   14.22    2.99
   7  -4  -8   13.46    2.98
   7  -4  -8   16.45    3.40
   7  -4  -7   16.19    3.16
   7  -4  -7   17.19    3.40
   7  -4  -6    1.84    1.23
   7  -4  -6    2.52    1.60
   7  -4  -6    6.56    1.66
   7  -4  -5   35.24    4.77
   7  -4  -5   33.69    5.03
   7  -4  -4    1.92    1.27
   7  -4  -4    4.26    1.51
   7  -4  -4    2.78    1.56
   7  -4  -3    3.64    1.82
   7  -4  -3    6.93    1.83
   7  -4  -3    4.66    1.59
   7  -4  -2   52.32    5.68
   7  -4  -2   47.93    5.87
   7  -4  -2   45.03    5.75
   7  -4  -1   11.91    2.47
   7  -4  -1   12.12    2.71
   7  -4  -1   11.61    2.61
   7  -4   0   24.33    3.70
   7  -4   0   25.09    3.77
   7  -4   0   21.60    3.74
   7  -4   1   47.17    5.51
   7  -4   1   44.78    5.83
  -7   4  -1   42.95    8.60
   7  -4   2   31.11    4.25
   7  -4   2   28.53    4.62
  -7   4  -2   30.60    6.71
   7  -4   3   32.13    4.45
   7  -4   3   35.86    4.60
  -7   4  -3   29.35    7.46
   7  -4   4   92.78    9.26
   7  -4   4  102.37    9.75
  -7   4  -4   85.28   13.79
   7  -4   5    2.68    1.01
   7  -4   5    0.36    1.02
   7   4   5    0.03    0.86
  -7   4  -5    1.02    1.56
   7  -4   6   30.40    3.85
   7  -4   6   27.41    3.97
  -7   4  -6   22.59    5.34
   7  -4   7   13.93    1.95
   7   4   7   -0.09    1.57
  -7   4  -7   12.08    2.70
   7  -4   8   -0.17    0.44
   7   4   8    0.19    0.41
  -7   4  -8   -0.17    0.64
   7  -4   9   -0.11    0.52
   7  -4   9    0.09    0.44
   7   4   9    0.29    0.50
   7  -4  10    4.97    1.20
   7  -4  10    0.19    1.07
   7   4  10    5.70    1.20
   7  -4  11    6.59    1.10
   7  -4  11    0.08    0.98
   7   4  11    3.53    1.12
   7  -4  12   11.76    2.07
   7   4  12    9.83    1.82
   7   4  13    0.69    0.65
   7  -5 -12    2.38    1.19
   7  -5 -12    3.18    1.34
   7  -5 -11   12.33    2.45
   7  -5 -11   12.44    2.35
   7  -5 -10    0.21    0.76
   7  -5 -10    0.55    0.79
   7  -5  -9   10.26    2.24
   7  -5  -9    8.66    2.24
   7  -5  -8    4.45    1.76
   7  -5  -8    5.14    1.66
   7  -5  -7    5.57    1.71
   7  -5  -7    3.14    1.68
   7  -5  -6    1.61    0.75
   7  -5  -6    0.27    0.94
   7  -5  -6    0.28    1.10
   7  -5  -5   15.91    3.32
   7  -5  -5   14.81    2.80
   7  -5  -4    0.15    1.43
   7  -5  -4    9.69    1.86
   7  -5  -4    9.35    1.93
   7  -5  -3    6.54    1.70
   7  -5  -3    5.90    1.89
   7  -5  -3    6.45    2.00
   7  -5  -2    8.73    2.05
   7  -5  -2    7.29    1.54
   7  -5  -2    7.78    1.86
   7  -5  -1    9.45    1.97
   7  -5  -1    7.60    2.17
   7  -5   0    7.10    1.69
   7  -5   0    3.46    1.65
  -7   5   0    5.42    3.03
   7  -5   1    0.86    1.14
   7  -5   1    2.85    1.25
  -7   5  -1    4.55    2.15
   7  -5   2   27.73    2.97
   7  -5   2   27.55    3.89
  -7   5  -2   25.25    6.88
   7  -5   3   10.65    2.53
   7  -5   3   14.18    2.61
  -7   5  -3   13.47    4.31
   7  -5   4   43.75    5.02
   7  -5   4   46.78    5.34
  -7   5  -4   45.87    8.01
   7  -5   5    0.74    0.92
   7  -5   5   -0.17    0.97
  -7   5  -5    4.98    1.53
   7  -5   6    2.95    1.27
   7  -5   6    1.87    0.89
   7   5   6    2.21    1.11
  -7   5  -6    5.00    1.88
   7  -5   7   15.93    1.97
   7   5   7   -0.15    1.75
  -7   5  -7   12.32    2.71
   7  -5   8   13.21    1.69
   7   5   8    0.41    1.61
  -7   5  -8    9.18    2.24
   7  -5   9    0.71    0.74
   7   5   9    0.07    0.73
  -7   5  -9    2.36    0.97
   7  -5  10    0.53    0.50
   7  -5  10    0.09    0.46
   7   5  10   -0.05    0.50
   7  -5  11    7.97    1.11
   7   5  11   -0.02    1.05
   7  -6 -10    2.57    1.28
   7  -6 -10    3.92    1.47
   7  -6  -9    5.74    1.69
   7  -6  -9    6.47    1.65
   7  -6  -8    3.01    1.34
   7  -6  -8    3.32    1.33
   7  -6  -7    1.72    0.93
   7  -6  -7    4.02    1.29
   7  -6  -7    2.95    1.20
   7  -6  -6    0.00    0.92
   7  -6  -6    3.80    1.16
   7  -6  -6    3.88    1.20
   7  -6  -5   -0.04    0.92
   7  -6  -5    2.69    0.85
   7  -6  -5    0.00    0.61
   7  -6  -4   18.22    2.88
  -7   6   4   15.60    5.54
   7  -6  -3   18.51    2.83
   7  -6  -3   18.85    2.94
  -7   6   3   18.95    5.46
   7  -6  -2   45.59    4.81
   7  -6  -2   48.45    5.16
  -7   6   2   43.06    8.69
   7  -6  -1    5.01    1.58
   7  -6  -1    5.69    1.65
  -7   6   1    5.39    3.26
   7  -6   0   10.33    2.09
   7  -6   0   12.44    2.19
  -7   6   0    7.98    4.31
   7  -6   1   -0.05    0.80
   7  -6   1    2.02    0.85
  -7   6  -1   -0.57    1.71
   7  -6   2    1.72    0.82
   7  -6   2    0.16    0.85
  -7   6  -2    0.40    1.59
   7  -6   3   17.22    2.57
   7  -6   3   14.00    2.54
  -7   6  -3   17.64    4.48
   7  -6   4   25.89    3.65
   7  -6   4   25.09    3.43
  -7   6  -4   26.35    5.23
   7  -6   5    0.79    0.75
  -7   6  -5    0.76    1.30
   7  -6   6   12.53    2.03
  -7   6  -6    7.95    2.81
   7  -6   7    1.58    0.81
  -7   6  -7    0.46    1.17
   7  -6   8    5.56    1.21
  -7   6  -8    3.38    1.71
   7  -6   9    8.44    1.48
  -7   7   7    4.82    2.99
   7  -7  -6    0.13    0.58
  -7   7   6    0.22    1.46
   7  -7  -5    0.11    0.48
   7  -7  -5    0.09    0.56
  -7   7   5    0.73    1.24
   7  -7  -4    0.77    0.67
   7  -7  -4   -0.06    0.60
  -7   7   4    0.72    1.44
   7  -7  -3    2.29    0.97
   7  -7  -3    1.85    1.05
  -7   7   3   -0.07    2.30
   7  -7  -2    2.99    1.08
   7  -7  -2    2.77    1.20
  -7   7   2    1.04    2.67
   7  -7  -1    2.70    1.04
   7  -7  -1    2.88    1.19
  -7   7   1    2.93    2.36
   7  -7   0    9.30    1.85
   7  -7   0    9.93    1.98
  -7   7   0   11.53    3.78
   7  -7   1    0.47    0.76
   7  -7   1    0.56    0.78
  -7   7  -1    3.31    1.51
   7  -7   2   19.70    2.62
   7  -7   2   20.00    2.63
  -7   7  -2   15.76    4.32
   7  -7   3    1.75    1.01
  -7   7  -3    3.46    1.76
   7  -7   4    1.62    0.82
  -7   7  -4    0.80    1.23
   7  -7   5    4.43    1.18
  -7   7  -5    5.39    1.85
   7  -7   6    0.55    0.56
  -7   7  -6    0.39    0.81
  -7   8   1   10.58    3.20
  -7   8   0    0.41    1.30
   8   0  -8   -0.24    0.60
   8   0  -7    0.01    0.49
   8   0  -7    0.03    0.42
   8   0  -6    0.27    1.20
   8   0  -6    1.98    0.84
   8   0  -5   -0.18    0.59
   8   0  -4   -0.26    0.65
   8   0  -3    1.80    1.06
   8   0  -2    2.10    1.07
   8   0  -1    0.01    0.46
   8   0   0    0.05    0.48
   8   0   1    2.71    1.26
   8   0   2   -0.49    0.66
   8   0   3    1.72    0.92
   8   0   4    1.95    0.97
   8   0   5    1.90    0.90
   8   0   6   -0.13    0.46
   8   0   7   -0.39    0.67
   8  -1  -9    5.17    1.50
   8  -1  -8    2.05    1.03
   8  -1  -8    1.78    0.97
   8  -1  -7    2.32    0.83
   8  -1  -7   -0.31    0.74
   8  -1  -6    0.09    0.53
   8  -1  -6   -0.34    0.49
   8  -1  -5   -0.34    0.53
   8  -1  -5   -0.05    0.60
   8  -1  -4    0.12    0.82
   8  -1  -4    1.44    0.75
   8  -1  -3    0.12    0.83
   8  -1  -3    2.06    0.80
   8  -1  -2    0.46    0.70
   8  -1  -1    0.07    0.60
   8  -1   0   -0.09    0.53
   8  -1   1    2.02    0.84
   8  -1   1    0.07    1.04
   8  -1   2    0.11    0.41
   8  -1   2   -0.17    0.45
   8  -1   3   -0.08    0.56
   8  -1   3   -0.43    0.64
   8  -1   4    0.00    0.95
   8   1   4    1.88    0.77
   8  -1   5   -0.08    0.45
   8   1   5   -0.10    0.45
   8  -1   6    3.29    0.92
   8   1   6    0.57    0.87
   8  -1   7    1.66    0.86
   8  -2  -8   -0.05    0.49
   8  -2  -8    0.22    0.50
   8  -2  -7    2.05    0.83
   8  -2  -7   -0.10    0.79
   8  -2  -6   -0.11    1.15
   8  -2  -6    8.54    1.30
   8  -2  -5    0.16    0.47
   8  -2  -5    0.00    0.46
   8  -2  -4   26.56    2.17
   8  -2  -4   -0.04    1.69
   8  -2  -3    1.86    0.85
   8  -2  -3    0.25    0.89
   8  -2  -2    4.54    1.36
  -8   2   2    4.61    2.52
   8  -2  -1    1.02    0.90
  -8   2   1    5.29    2.21
   8  -2   0   -0.01    0.76
   8  -2   0    1.73    0.76
   8  -2   1    0.00    0.82
   8  -2   1    2.79    0.91
   8  -2   2   -0.07    0.44
   8  -2   2   -0.07    0.51
   8  -2   3    0.12    0.44
   8  -2   3   -0.03    0.51
   8  -2   4    0.15    0.49
   8  -2   4    0.14    0.36
   8  -2   5   18.71    2.49
   8  -2   6    9.79    1.83
   8  -2   7   13.55    2.00
   8  -3  -7    1.86    1.12
   8  -3  -7    2.94    1.03
   8  -3  -6   13.73    2.19
   8  -3  -6   11.77    2.07
   8  -3  -5    8.72    1.70
   8  -3  -5    6.77    1.62
   8  -3  -4    3.62    0.95
   8  -3  -4    0.11    0.86
   8  -3  -3   10.65    1.92
  -8   3   3    8.03    3.22
   8  -3  -2    2.37    1.13
  -8   3   2    3.39    1.98
   8  -3  -1    8.39    1.68
  -8   3   1    6.07    3.23
   8  -3   0    1.57    0.71
   8  -3   0    0.21    0.77
  -8   3   0   -0.20    1.30
   8  -3   1    1.79    0.92
   8  -3   1    1.97    0.98
   8  -3   2    0.18    0.83
   8  -3   2    3.26    0.92
   8  -3   3    0.00    1.11
   8  -3   3    8.90    1.29
   8  -3   4    8.16    1.64
   8  -3   5    0.03    0.38
   8  -4  -5    0.23    0.69
   8  -4  -4    0.18    0.53
   8  -4  -3    4.54    1.37
  -8   4   3    5.46    2.30
   8  -4  -2    2.99    1.13
   8  -4  -1   17.44    2.54
   8  -4   0    5.24    1.42
   8  -4   1    0.42    0.67
   8  -4   2    2.88    1.38
   0   0   0    0.00    0.00
;
_shelx_hkl_checksum              72858
loop_
_space_group_symop_operation_xyz
'x, y, z'
'-x+1/2, y+1/2, -z+1/2'
'-x, -y, -z'
'x-1/2, -y-1/2, z-1/2'
loop_
_atom_site_label
_atom_site_type_symbol
_atom_site_fract_x
_atom_site_fract_y
_atom_site_fract_z
_atom_site_U_iso_or_equiv
_atom_site_adp_type
_atom_site_occupancy
_atom_site_site_symmetry_order
_atom_site_calc_flag
_atom_site_refinement_flags_posn
_atom_site_refinement_flags_adp
S1 S 0.25126(9) -0.05760(6) 0.24566(2) 0.0665(3) Uani 1 1 d . .
O1 O 0.4036(3) 0.0075(2) 0.26974(8) 0.0898(7) Uani 1 1 d . .
O2 O -0.4562(3) 0.1898(2) 0.41356(11) 0.1024(8) Uani 1 1 d . .
O3 O 0.1442(3) -0.08063(19) 0.43022(8) 0.0889(7) Uani 1 1 d . .
O4 O 0.2815(4) -0.17253(19) 0.23153(9) 0.1000(8) Uani 1 1 d . .
N1 N 0.0779(3) -0.05619(16) 0.28914(8) 0.0570(5) Uani 1 1 d . .
C1 C -0.0442(8) 0.1876(4) 0.04205(16) 0.1278(16) Uani 1 1 d . .
H1A H -0.179904 0.193347 0.044343 0.192 Uiso 1 1 calc R U
H1B H -0.013345 0.148555 0.008786 0.192 Uiso 1 1 calc R U
H1C H 0.010239 0.261431 0.041536 0.192 Uiso 1 1 calc R U
C2 C 0.0348(4) 0.1240(3) 0.09152(11) 0.0760(8) Uani 1 1 d . .
C3 C -0.0099(5) 0.0121(3) 0.10048(12) 0.0859(9) Uani 1 1 d . .
H3 H -0.086542 -0.025324 0.074482 0.103 Uiso 1 1 calc R U
C4 C 0.0561(5) -0.0452(2) 0.14681(11) 0.0745(8) Uani 1 1 d . .
H4 H 0.023319 -0.119838 0.152298 0.089 Uiso 1 1 calc R U
C5 C 0.1721(3) 0.01095(19) 0.18496(9) 0.0546(6) Uani 1 1 d . .
C6 C 0.0308(3) 0.05049(18) 0.31534(9) 0.0511(5) Uani 1 1 d . .
H6 H 0.149734 0.091307 0.322857 0.061 Uiso 1 1 calc R U
C7 C -0.0673(3) 0.0314(2) 0.37149(9) 0.0526(5) Uani 1 1 d . .
C8 C -0.1422(3) 0.1510(2) 0.38321(10) 0.0574(6) Uani 1 1 d . .
C9 C 0.0321(4) 0.2105(2) 0.41337(11) 0.0659(7) Uani 1 1 d . .
H9 H 0.120819 0.233066 0.384932 0.079 Uiso 1 1 calc R U
C10 C -0.0200(5) 0.3138(3) 0.44494(15) 0.0844(9) Uani 1 1 d . .
H10 H -0.075571 0.303363 0.478977 0.101 Uiso 1 1 calc R U
C11 C 0.0051(8) 0.4145(5) 0.4293(3) 0.1478(19) Uani 1 1 d . .
H11A H 0.060199 0.428877 0.395499 0.177 Uiso 1 1 calc R U
H11B H -0.031645 0.473786 0.451564 0.177 Uiso 1 1 calc R U
C12 C -0.1065(4) 0.1294(2) 0.28361(9) 0.0611(6) Uani 1 1 d . .
H12A H -0.037902 0.175536 0.257861 0.073 Uiso 1 1 calc R U
H12B H -0.202269 0.086625 0.263049 0.073 Uiso 1 1 calc R U
C13 C -0.1979(4) 0.2017(2) 0.32686(11) 0.0714(7) Uani 1 1 d . .
H13A H -0.335136 0.201796 0.321407 0.086 Uiso 1 1 calc R U
H13B H -0.152543 0.278345 0.324509 0.086 Uiso 1 1 calc R U
C14 C -0.3035(4) 0.1493(3) 0.42272(12) 0.0708(7) Uani 1 1 d . .
H14 H -0.282542 0.114217 0.456701 0.085 Uiso 1 1 calc R U
C15 C 0.1264(4) 0.1177(3) 0.44723(11) 0.0722(7) Uani 1 1 d . .
H15A H 0.262897 0.129080 0.449890 0.087 Uiso 1 1 calc R U
H15B H 0.077413 0.116333 0.484299 0.087 Uiso 1 1 calc R U
C16 C 0.0807(3) 0.0098(2) 0.41769(9) 0.0617(6) Uani 1 1 d . .
C17 C -0.2228(4) -0.0581(2) 0.36670(11) 0.0649(7) Uani 1 1 d . .
H17A H -0.261621 -0.078411 0.403533 0.078 Uiso 1 1 calc R U
H17B H -0.332587 -0.026732 0.347010 0.078 Uiso 1 1 calc R U
C18 C -0.1592(5) -0.1640(2) 0.33665(12) 0.0767(8) Uani 1 1 d . .
H18A H -0.062383 -0.202240 0.358963 0.092 Uiso 1 1 calc R U
H18B H -0.266552 -0.214398 0.331541 0.092 Uiso 1 1 calc R U
C19 C -0.0803(4) -0.1347(2) 0.28082(11) 0.0694(7) Uani 1 1 d . .
H19A H -0.036370 -0.202119 0.262735 0.083 Uiso 1 1 calc R U
H19B H -0.178883 -0.100769 0.257431 0.083 Uiso 1 1 calc R U
C20 C 0.2196(4) 0.1211(2) 0.17595(11) 0.0673(7) Uani 1 1 d . .
H20 H 0.298133 0.158852 0.201378 0.081 Uiso 1 1 calc R U
C21 C 0.1514(5) 0.1755(2) 0.12958(12) 0.0772(8) Uani 1 1 d . .
H21 H 0.185870 0.249802 0.123924 0.093 Uiso 1 1 calc R U
loop_
_atom_site_aniso_label
_atom_site_aniso_U_11
_atom_site_aniso_U_22
_atom_site_aniso_U_33
_atom_site_aniso_U_23
_atom_site_aniso_U_13
_atom_site_aniso_U_12
S1 0.0666(5) 0.0803(5) 0.0526(4) 0.0051(3) 0.0055(3) 0.0218(3)
O1 0.0503(10) 0.155(2) 0.0633(11) -0.0015(12) -0.0051(8) 0.0060(11)
O2 0.0618(13) 0.136(2) 0.1105(18) 0.0028(14) 0.0194(12) 0.0213(12)
O3 0.1048(16) 0.0926(14) 0.0679(12) 0.0083(10) -0.0204(11) 0.0316(12)
O4 0.136(2) 0.0849(14) 0.0803(13) 0.0146(11) 0.0267(13) 0.0515(13)
N1 0.0613(12) 0.0630(11) 0.0467(10) 0.0035(8) 0.0010(8) 0.0055(9)
C1 0.151(4) 0.158(4) 0.075(2) 0.044(2) 0.004(2) 0.035(3)
C2 0.0790(18) 0.094(2) 0.0550(14) 0.0158(13) 0.0099(13) 0.0072(15)
C3 0.091(2) 0.110(2) 0.0555(15) 0.0019(15) -0.0139(14) -0.0252(18)
C4 0.097(2) 0.0658(15) 0.0607(15) -0.0013(12) -0.0008(14) -0.0251(14)
C5 0.0606(13) 0.0582(12) 0.0451(11) -0.0037(9) 0.0061(10) -0.0006(10)
C6 0.0501(12) 0.0585(12) 0.0446(11) 0.0044(9) 0.0018(9) 0.0017(9)
C7 0.0476(12) 0.0662(13) 0.0440(11) 0.0077(9) 0.0019(9) 0.0037(10)
C8 0.0491(13) 0.0719(14) 0.0515(12) 0.0041(10) 0.0047(9) 0.0059(11)
C9 0.0587(14) 0.0761(15) 0.0634(15) -0.0041(12) 0.0113(11) -0.0039(12)
C10 0.079(2) 0.088(2) 0.087(2) -0.0162(16) 0.0128(16) -0.0072(16)
C11 0.156(5) 0.126(4) 0.163(5) -0.040(4) 0.032(4) -0.006(3)
C12 0.0706(15) 0.0642(14) 0.0484(12) 0.0116(10) 0.0003(10) 0.0068(11)
C13 0.0756(17) 0.0779(16) 0.0607(15) 0.0087(12) 0.0031(12) 0.0216(13)
C14 0.0545(15) 0.0879(18) 0.0708(16) -0.0016(13) 0.0122(12) 0.0044(13)
C15 0.0578(15) 0.100(2) 0.0590(14) -0.0032(13) -0.0041(11) -0.0010(13)
C16 0.0540(13) 0.0857(17) 0.0455(12) 0.0066(11) 0.0023(10) 0.0098(12)
C17 0.0586(14) 0.0756(16) 0.0607(14) 0.0103(11) 0.0048(11) -0.0076(11)
C18 0.0838(19) 0.0701(16) 0.0761(17) 0.0095(13) 0.0026(14) -0.0150(14)
C19 0.0804(18) 0.0644(14) 0.0630(14) 0.0010(11) -0.0064(12) -0.0024(12)
C20 0.0771(17) 0.0644(14) 0.0605(14) -0.0067(11) 0.0057(12) -0.0184(12)
C21 0.102(2) 0.0598(14) 0.0711(17) 0.0119(12) 0.0180(16) -0.0055(14)
loop_
_atom_type_symbol
_atom_type_description
_atom_type_scat_dispersion_real
_atom_type_scat_dispersion_imag
_atom_type_scat_source
C C 0.0181 0.0091 'International Tables Vol C Tables 4.2.6.8 and 6.1.1.4'
H H 0.0000 0.0000 'International Tables Vol C Tables 4.2.6.8 and 6.1.1.4'
N N 0.0311 0.0180 'International Tables Vol C Tables 4.2.6.8 and 6.1.1.4'
O O 0.0492 0.0322 'International Tables Vol C Tables 4.2.6.8 and 6.1.1.4'
S S 0.3331 0.5567 'International Tables Vol C Tables 4.2.6.8 and 6.1.1.4'
loop_
_geom_angle_atom_site_label_1
_geom_angle_atom_site_label_2
_geom_angle_atom_site_label_3
_geom_angle
O4 S1 O1 120.10(15)
O4 S1 N1 106.44(13)
O1 S1 N1 107.24(11)
O4 S1 C5 106.98(12)
O1 S1 C5 107.59(13)
N1 S1 C5 108.01(10)
C19 N1 C6 115.74(19)
C19 N1 S1 118.95(17)
C6 N1 S1 118.08(15)
C2 C1 H1A 109.5
C2 C1 H1B 109.5
H1A C1 H1B 109.5
C2 C1 H1C 109.5
H1A C1 H1C 109.5
H1B C1 H1C 109.5
C21 C2 C3 117.5(2)
C21 C2 C1 120.7(3)
C3 C2 C1 121.8(3)
C4 C3 C2 122.0(3)
C4 C3 H3 119.0
C2 C3 H3 119.0
C3 C4 C5 118.6(2)
C3 C4 H4 120.7
C5 C4 H4 120.7
C20 C5 C4 119.8(2)
C20 C5 S1 120.33(18)
C4 C5 S1 119.83(19)
N1 C6 C12 117.58(19)
N1 C6 C7 111.25(18)
C12 C6 C7 103.67(17)
N1 C6 H6 108.0
C12 C6 H6 108.0
C7 C6 H6 108.0
C16 C7 C17 114.1(2)
C16 C7 C8 104.48(19)
C17 C7 C8 114.16(19)
C16 C7 C6 110.63(18)
C17 C7 C6 111.72(19)
C8 C7 C6 100.79(17)
C14 C8 C13 113.1(2)
C14 C8 C7 111.8(2)
C13 C8 C7 106.26(19)
C14 C8 C9 107.6(2)
C13 C8 C9 114.1(2)
C7 C8 C9 103.56(18)
C10 C9 C15 115.7(2)
C10 C9 C8 114.0(2)
C15 C9 C8 104.0(2)
C10 C9 H9 107.6
C15 C9 H9 107.6
C8 C9 H9 107.6
C11 C10 C9 125.8(4)
C11 C10 H10 117.1
C9 C10 H10 117.1
C10 C11 H11A 120.0
C10 C11 H11B 120.0
H11A C11 H11B 120.0
C13 C12 C6 106.10(19)
C13 C12 H12A 110.5
C6 C12 H12A 110.5
C13 C12 H12B 110.5
C6 C12 H12B 110.5
H12A C12 H12B 108.7
C12 C13 C8 106.70(19)
C12 C13 H13A 110.4
C8 C13 H13A 110.4
C12 C13 H13B 110.4
C8 C13 H13B 110.4
H13A C13 H13B 108.6
O2 C14 C8 124.7(3)
O2 C14 H14 117.7
C8 C14 H14 117.7
C16 C15 C9 106.5(2)
C16 C15 H15A 110.4
C9 C15 H15A 110.4
C16 C15 H15B 110.4
C9 C15 H15B 110.4
H15A C15 H15B 108.6
O3 C16 C15 125.1(2)
O3 C16 C7 125.2(2)
C15 C16 C7 109.6(2)
C18 C17 C7 113.1(2)
C18 C17 H17A 109.0
C7 C17 H17A 109.0
C18 C17 H17B 109.0
C7 C17 H17B 109.0
H17A C17 H17B 107.8
C19 C18 C17 110.7(2)
C19 C18 H18A 109.5
C17 C18 H18A 109.5
C19 C18 H18B 109.5
C17 C18 H18B 109.5
H18A C18 H18B 108.1
N1 C19 C18 108.8(2)
N1 C19 H19A 109.9
C18 C19 H19A 109.9
N1 C19 H19B 109.9
C18 C19 H19B 109.9
H19A C19 H19B 108.3
C21 C20 C5 120.1(2)
C21 C20 H20 120.0
C5 C20 H20 120.0
C2 C21 C20 122.0(2)
C2 C21 H21 119.0
C20 C21 H21 119.0
loop_
_geom_bond_atom_site_label_1
_geom_bond_atom_site_label_2
_geom_bond_distance
S1 O4 1.430(2)
S1 O1 1.432(2)
S1 N1 1.634(2)
S1 C5 1.756(2)
O2 C14 1.192(3)
O3 C16 1.202(3)
N1 C19 1.463(3)
N1 C6 1.463(3)
C1 C2 1.508(4)
C1 H1A 0.9600
C1 H1B 0.9600
C1 H1C 0.9600
C2 C21 1.360(4)
C2 C3 1.389(4)
C3 C4 1.380(4)
C3 H3 0.9300
C4 C5 1.385(3)
C4 H4 0.9300
C5 C20 1.375(3)
C6 C12 1.537(3)
C6 C7 1.558(3)
C6 H6 0.9800
C7 C16 1.526(3)
C7 C17 1.530(3)
C7 C8 1.549(3)
C8 C14 1.505(3)
C8 C13 1.531(3)
C8 C9 1.576(4)
C9 C10 1.501(4)
C9 C15 1.517(4)
C9 H9 0.9800
C10 C11 1.273(6)
C10 H10 0.9300
C11 H11A 0.9300
C11 H11B 0.9300
C12 C13 1.514(4)
C12 H12A 0.9700
C12 H12B 0.9700
C13 H13A 0.9700
C13 H13B 0.9700
C14 H14 0.9300
C15 C16 1.501(4)
C15 H15A 0.9700
C15 H15B 0.9700
C17 C18 1.530(4)
C17 H17A 0.9700
C17 H17B 0.9700
C18 C19 1.516(4)
C18 H18A 0.9700
C18 H18B 0.9700
C19 H19A 0.9700
C19 H19B 0.9700
C20 C21 1.369(4)
C20 H20 0.9300
C21 H21 0.9300
