#------------------------------------------------------------------------------
#$Date: 2015-06-05 08:57:26 +0300 (Fri, 05 Jun 2015) $
#$Revision: 138312 $
#$URL: svn://www.crystallography.net/cod/cif/1/51/96/1519629.cif $
#------------------------------------------------------------------------------
#
# This file is available in the Crystallography Open Database (COD),
# http://www.crystallography.net/
#
# All data on this site have been placed in the public domain by the
# contributors.
#
data_1519629
loop_
_publ_author_name
'Kumar, Yalla Kiran'
'Kumar, Gadi Ranjith'
'Reddy, Thota Jagadeshwar'
'Sridhar, Balasubramanian'
'Reddy, Maddi Sridhar'
_publ_section_title
;
 Synthesis of 3-Sulfonylamino Quinolines from 1-(2-Aminophenyl) Propargyl
 Alcohols through a Ag(I)-Catalyzed Hydroamination, (2 + 3) Cycloaddition,
 and an Unusual Strain-Driven Ring Expansion.
;
_journal_issue                   9
_journal_name_full               'Organic letters'
_journal_page_first              2226
_journal_page_last               2229
_journal_paper_doi               10.1021/acs.orglett.5b00832
_journal_volume                  17
_journal_year                    2015
_chemical_formula_moiety         'C21 H26 N2 O2 S'
_chemical_formula_sum            'C21 H26 N2 O2 S'
_chemical_formula_weight         370.50
_space_group_crystal_system      monoclinic
_space_group_IT_number           14
_space_group_name_Hall           '-P 2ybc'
_space_group_name_H-M_alt        'P 1 21/c 1'
_symmetry_space_group_name_Hall  '-P 2ybc'
_symmetry_space_group_name_H-M   'P 1 21/c 1'
_atom_sites_solution_hydrogens   mixed
_audit_creation_method           SHELXL-2014/7
_cell_angle_alpha                90
_cell_angle_beta                 93.863(3)
_cell_angle_gamma                90
_cell_formula_units_Z            4
_cell_length_a                   7.3915(12)
_cell_length_b                   13.779(2)
_cell_length_c                   19.135(3)
_cell_measurement_reflns_used    5488
_cell_measurement_temperature    294(2)
_cell_measurement_theta_max      26.56
_cell_measurement_theta_min      2.60
_cell_volume                     1944.4(5)
_computing_cell_refinement       'SAINT (Bruker, 2001)'
_computing_data_collection       'SMART (Bruker, 2001)'
_computing_data_reduction        'SAINT Bruker, 2001'
_computing_molecular_graphics    'SHELXL2014 (Sheldrick, 2015)'
_computing_publication_material  'SHELXL2014 (Sheldrick, 2015)'
_computing_structure_refinement  'SHELXL-2014/7 (Sheldrick, 2015)'
_computing_structure_solution    'SHELXL-2014/7 (Sheldrick, 2015)'
_diffrn_ambient_temperature      294(2)
_diffrn_measured_fraction_theta_full 0.999
_diffrn_measured_fraction_theta_max 0.999
_diffrn_measurement_device_type  'Bruker SMART APEX CCD area-detector'
_diffrn_measurement_method       \w
_diffrn_radiation_type           MoK\a
_diffrn_radiation_wavelength     0.71073
_diffrn_reflns_av_R_equivalents  0.0544
_diffrn_reflns_av_unetI/netI     0.0380
_diffrn_reflns_laue_measured_fraction_full 0.999
_diffrn_reflns_laue_measured_fraction_max 0.999
_diffrn_reflns_limit_h_max       8
_diffrn_reflns_limit_h_min       -8
_diffrn_reflns_limit_k_max       16
_diffrn_reflns_limit_k_min       -16
_diffrn_reflns_limit_l_max       22
_diffrn_reflns_limit_l_min       -22
_diffrn_reflns_number            17261
_diffrn_reflns_point_group_measured_fraction_full 0.999
_diffrn_reflns_point_group_measured_fraction_max 0.999
_diffrn_reflns_theta_full        25.000
_diffrn_reflns_theta_max         25.000
_diffrn_reflns_theta_min         1.823
_exptl_absorpt_coefficient_mu    0.184
_exptl_absorpt_correction_T_max  0.96
_exptl_absorpt_correction_T_min  0.91
_exptl_absorpt_correction_type   multi-scan
_exptl_absorpt_process_details   'SADABS; Bruker,2001'
_exptl_crystal_colour            colorless
_exptl_crystal_density_diffrn    1.266
_exptl_crystal_description       block
_exptl_crystal_F_000             792
_exptl_crystal_size_max          0.170
_exptl_crystal_size_mid          0.150
_exptl_crystal_size_min          0.090
_refine_diff_density_max         0.685
_refine_diff_density_min         -0.442
_refine_diff_density_rms         0.090
_refine_ls_extinction_method     none
_refine_ls_goodness_of_fit_ref   0.962
_refine_ls_hydrogen_treatment    mixed
_refine_ls_matrix_type           full
_refine_ls_number_parameters     274
_refine_ls_number_reflns         3411
_refine_ls_number_restraints     18
_refine_ls_restrained_S_all      0.962
_refine_ls_R_factor_all          0.0769
_refine_ls_R_factor_gt           0.0695
_refine_ls_shift/su_max          0.000
_refine_ls_shift/su_mean         0.000
_refine_ls_structure_factor_coef Fsqd
_refine_ls_weighting_details
'w=1/[\s^2^(Fo^2^)+(0.1324P)^2^+1.6388P] where P=(Fo^2^+2Fc^2^)/3'
_refine_ls_weighting_scheme      calc
_refine_ls_wR_factor_gt          0.1907
_refine_ls_wR_factor_ref         0.1983
_reflns_Friedel_coverage         0.000
_reflns_number_gt                2960
_reflns_number_total             3411
_reflns_threshold_expression     'I > 2\s(I)'
_cod_data_source_file            9camf.cif
_cod_data_source_block           ay77m
_cod_depositor_comments
'Adding full bibliography for 1519629--1519631.cif.'
_cod_original_cell_volume        1944.4(6)
_cod_database_code               1519629
_shelx_shelxl_version_number     2014/7
_shelx_space_group_comment
;
The symmetry employed for this shelxl refinement is uniquely defined
by the following loop, which should always be used as a source of
symmetry information in preference to the above space-group names.
They are only intended as comments.
;
_shelx_estimated_absorpt_t_min   0.969
_shelx_estimated_absorpt_t_max   0.984
_shelx_res_file
;

    ay77m.res created by SHELXL-2014/7


TITL    AY77m in P2(1)/c
CELL 0.71073   7.3915  13.7788  19.1350  90.000  93.863  90.000
ZERR    4.00   0.0012   0.0023   0.0032   0.000   0.003   0.000
LATT 1
SYMM -X, 0.50000+Y, 0.50000-Z
SFAC C  H  N  O  S
UNIT 84 104 8 8 4
MERG 2
OMIT  -3.00  50.00
L.S. 25
ACTA
BOND $H
FMAP 2
PLAN 5
CONF
SIZE 0.17 0.15 0.09
DELU 0.02 0.02 C17 C171 C18 C181 C19 C191 C20
DFIX 1.55 0.01 C16 C17 C16 C171 C17 C18 C171 C181 C18 C19 C181 C191
DFIX 1.55 0.01 C19 C20 C191 C20
TEMP 21
WGHT    0.132400    1.638800
FVAR       0.24303   0.72903
C1    1    0.087754    0.196023    0.058621    11.00000    0.02468    0.04022 =
         0.05255   -0.00241   -0.00013    0.00300
C2    1   -0.018423    0.154436    0.003679    11.00000    0.03272    0.04291 =
         0.06296   -0.00284   -0.00286   -0.00683
AFIX  43
H2    2   -0.040089    0.087946    0.002770    11.00000   -1.20000
AFIX   0
C3    1   -0.091337    0.213515   -0.049617    11.00000    0.03521    0.06314 =
         0.05775    0.00008   -0.00782   -0.00788
AFIX  43
H3    2   -0.161367    0.185694   -0.086545    11.00000   -1.20000
AFIX   0
C4    1   -0.062949    0.312459   -0.049431    11.00000    0.04160    0.06403 =
         0.06588    0.01281   -0.00412    0.00120
C5    1    0.043290    0.351841    0.006186    11.00000    0.06436    0.03785 =
         0.07751    0.00335   -0.01098    0.00011
AFIX  43
H5    2    0.064714    0.418352    0.007146    11.00000   -1.20000
AFIX   0
C6    1    0.117882    0.294879    0.060052    11.00000    0.04771    0.04158 =
         0.06334   -0.00593   -0.01053    0.00249
AFIX  43
H6    2    0.187772    0.322853    0.096954    11.00000   -1.20000
AFIX   0
C7    1   -0.142125    0.375716   -0.108572    11.00000    0.08800    0.08193 =
         0.09153    0.03084   -0.03046   -0.01437
AFIX 137
H7A   2   -0.126265    0.442799   -0.096067    11.00000   -1.50000
H7B   2   -0.269070    0.361918   -0.116838    11.00000   -1.50000
H7C   2   -0.081228    0.362529   -0.150300    11.00000   -1.50000
AFIX   0
C8    1    0.531557    0.122566    0.153346    11.00000    0.02181    0.04340 =
         0.04367   -0.00493    0.00057    0.00007
C9    1    0.687579    0.281063    0.151252    11.00000    0.02139    0.04502 =
         0.07176   -0.00323    0.00728   -0.00199
C10   1    0.601905    0.327496    0.094384    11.00000    0.05141    0.06174 =
         0.07695    0.01087   -0.00034   -0.00710
AFIX  43
H10   2    0.538636    0.291878    0.059425    11.00000   -1.20000
AFIX   0
C11   1    0.610959    0.427570    0.089827    11.00000    0.06879    0.07288 =
         0.13536    0.04014    0.00342   -0.00015
AFIX  43
H11   2    0.551192    0.459288    0.052079    11.00000   -1.20000
AFIX   0
C12   1    0.707176    0.480486    0.140410    11.00000    0.05926    0.04520 =
         0.18890    0.00355    0.02604   -0.00225
AFIX  43
H12   2    0.711727    0.547755    0.136959    11.00000   -1.20000
AFIX   0
C13   1    0.795637    0.434891    0.195417    11.00000    0.04707    0.06112 =
         0.14256   -0.03536    0.01507   -0.01567
AFIX  43
H13   2    0.862327    0.470812    0.229285    11.00000   -1.20000
AFIX   0
C14   1    0.786767    0.334941    0.201205    11.00000    0.03107    0.06104 =
         0.08911   -0.01464    0.00128   -0.00764
AFIX  43
H14   2    0.847920    0.303863    0.238933    11.00000   -1.20000
AFIX   0
C15   1    0.563187    0.014650    0.160858    11.00000    0.02232    0.04260 =
         0.04779    0.00464    0.00043    0.00120
AFIX  13
H15   2    0.445889   -0.016521    0.166494    11.00000   -1.20000
AFIX   0
C16   1    0.689512   -0.009383    0.225886    11.00000    0.04725    0.07557 =
         0.05191    0.01154   -0.00442    0.00162
AFIX  23
H16A  2    0.810789    0.012119    0.216987    11.00000   -1.20000
H16B  2    0.650472    0.028521    0.264849    11.00000   -1.20000
PART 1
AFIX   0
C17   1    0.700762   -0.115669    0.248699    21.00000    0.04832    0.08084 =
         0.05312    0.03522   -0.00090    0.00147
AFIX  23
H17A  2    0.585230   -0.134657    0.265697    21.00000   -1.20000
H17B  2    0.791959   -0.121743    0.287339    21.00000   -1.20000
AFIX   0
C18   1    0.747967   -0.186192    0.189835    21.00000    0.06944    0.05847 =
         0.10537    0.02538    0.00127    0.02305
AFIX  23
H18A  2    0.852602   -0.161407    0.167559    21.00000   -1.20000
H18B  2    0.780845   -0.248623    0.210391    21.00000   -1.20000
AFIX   0
C19   1    0.590761   -0.200628    0.133653    21.00000    0.07246    0.03364 =
         0.12623    0.00258   -0.00384    0.00540
AFIX  23
H19A  2    0.601471   -0.264980    0.113797    21.00000   -1.20000
H19B  2    0.477650   -0.198594    0.156540    21.00000   -1.20000
AFIX   0
PART 2
C171  1    0.714168   -0.120421    0.227473   -21.00000    0.05692    0.10174 =
         0.06308    0.04723   -0.02944   -0.01354
AFIX  23
H17C  2    0.728671   -0.137375    0.276733   -21.00000   -1.20000
H17D  2    0.831047   -0.132023    0.208816   -21.00000   -1.20000
AFIX   0
C181  1    0.586583   -0.198813    0.193583   -21.00000    0.07418    0.04575 =
         0.08330    0.02258    0.00273    0.00192
AFIX  23
H18C  2    0.597549   -0.258878    0.219966   -21.00000   -1.20000
H18D  2    0.461459   -0.177283    0.192294   -21.00000   -1.20000
AFIX   0
C191  1    0.646560   -0.213817    0.118591   -21.00000    0.06796    0.04528 =
         0.12464    0.00498    0.03802    0.02772
AFIX  23
H19C  2    0.777665   -0.218168    0.119396   -21.00000   -1.20000
H19D  2    0.595570   -0.273606    0.099099   -21.00000   -1.20000
AFIX   0
PART 0
C20   1    0.579176   -0.127001    0.073578    11.00000    0.05490    0.05379 =
         0.07429   -0.01145    0.01110   -0.00052
H20A  2    0.644464   -0.154001    0.033900    11.00000   -1.20000
H20B  2    0.449860   -0.124513    0.057608    11.00000   -1.20000
C21   1    0.638309   -0.024725    0.093096    11.00000    0.04666    0.04407 =
         0.04885    0.00363    0.00437    0.00277
AFIX  23
H21A  2    0.600301    0.018312    0.054760    11.00000   -1.20000
H21B  2    0.769712   -0.023044    0.098394    11.00000   -1.20000
AFIX   0
N1    3    0.375933    0.167507    0.141099    11.00000    0.02046    0.03636 =
         0.07044   -0.00630   -0.00421   -0.00130
N2    3    0.680962    0.178914    0.158913    11.00000    0.01858    0.04477 =
         0.07378   -0.00076   -0.00191    0.00081
O1    4    0.076778    0.134701    0.187217    11.00000    0.02856    0.07058 =
         0.06413    0.01597    0.00162    0.00036
O2    4    0.177380    0.021834    0.099667    11.00000    0.03827    0.03572 =
         0.10898   -0.00399   -0.02609   -0.00126
S1    5    0.179786    0.119176    0.126382    11.00000    0.02070    0.03639 =
         0.06363    0.00099   -0.00621   -0.00137
H1N   2    0.772721    0.150324    0.169101    11.00000    0.05586
HKLF      4

REM     AY77m in P2(1)/c
REM R1 =  0.0695 for    2960 Fo > 4sig(Fo)  and  0.0769 for all    3411 data
REM    274 parameters refined using     18 restraints

END

WGHT      0.1152      1.1023

REM Highest difference peak  0.685,  deepest hole -0.442,  1-sigma level  0.090
Q1    1   0.1793  0.1180  0.1810  11.00000  0.05    0.69
Q2    1   0.1621  0.1519  0.0844  11.00000  0.05    0.65
Q3    1   0.1703  0.1205  0.0723  11.00000  0.05    0.64
Q4    1   0.1752  0.0515  0.1361  11.00000  0.05    0.60
Q5    1   0.5888  0.0014  0.2043  11.00000  0.05    0.36
;
_shelx_res_checksum              22560
_shelx_hkl_file
;
  -1   0   0   13.82    0.92
   1   0   0   14.60    0.82
  -1   0   0   12.56    0.92
  -2   0   0  181.86   10.40
  -2   0   0  156.32   10.81
   2   0   0  184.23    9.79
  -2   0   0  173.50   10.85
  -3   0   0    1.02    0.32
   3   0   0    1.01    0.21
  -3   0   0    1.20    0.16
  -3   0   0    1.77    0.30
  -4   0   0  279.87   16.02
  -4   0   0  264.80   16.77
   4   0   0  291.33   15.14
  -4   0   0  238.09   16.69
   5   0   0   38.14    2.19
  -5   0   0   32.03    2.43
   6   0   0    9.69    0.81
  -6   0   0    7.64    0.98
   6   0   0    9.91    1.00
   7   0   0    3.90    0.77
  -7   0   0    5.04    0.79
   7   0   0    5.12    0.62
  -8   0   0   90.50    5.99
   8   0   0   88.14    5.91
  -9   0   0    4.78    0.98
   9   0   0    5.94    1.02
   0   1   0   -0.09    0.03
   0   1   0    0.03    0.04
   0  -1   0   -0.10    0.04
   1   1   0   54.01    3.46
  -1  -1   0   64.87    3.86
  -1  -1   0   58.21    3.70
   1  -1   0   59.82    3.49
  -1   1   0   61.01    3.83
  -1   1   0   70.83    3.85
   1   1   0   61.30    3.83
   2  -1   0   46.72    2.97
  -2   1   0   59.88    3.30
  -2   1   0   50.86    3.27
   2   1   0   54.67    3.29
  -2  -1   0   55.03    3.30
   2   1   0   51.89    2.94
  -2  -1   0   43.41    3.12
   3   1   0   53.05    3.47
   3   1   0   51.58    3.10
  -3  -1   0   55.46    3.49
  -3  -1   0   50.67    3.28
  -3   1   0   51.68    3.45
   3  -1   0   54.65    3.15
  -3   1   0   61.35    3.50
   4   1   0   30.65    1.93
   4  -1   0   33.17    1.98
  -4   1   0   32.51    2.20
  -4   1   0   30.68    2.18
  -4  -1   0   31.78    2.00
  -4  -1   0   32.94    2.21
   4   1   0   33.42    2.21
   5  -1   0   12.11    0.90
  -5  -1   0   11.58    1.01
   5   1   0   13.19    0.87
  -5   1   0   11.16    0.99
  -5   1   0   10.41    1.00
   5   1   0    9.63    1.02
  -6  -1   0   12.16    1.21
   6   1   0   14.15    1.27
  -6   1   0   14.69    1.25
   6   1   0   16.23    1.09
   6  -1   0   14.01    1.11
  -7   1   0    6.08    0.88
  -7  -1   0    5.13    0.79
   7  -1   0    4.19    0.80
   7   1   0    6.29    0.85
   7  -1   0    5.92    0.68
  -8   1   0    3.25    0.74
   8  -1   0    6.15    0.90
   8   1   0    5.04    0.83
  -8  -1   0    4.27    0.82
   9   1   0    1.40    0.70
  -9   1   0    0.93    0.70
   9  -1   0    1.42    0.71
  -9  -1   0    2.06    0.75
   0   2   0   86.47    5.35
   0  -2   0   84.80    5.16
   0  -2   0   85.79    4.84
   1  -2   0  215.15   12.50
  -1  -2   0  210.60   12.51
   1   2   0  208.77   12.94
   1  -2   0  221.46   11.75
  -1  -2   0  198.87   12.98
  -1   2   0  203.26   12.94
   2   2   0  128.76    7.58
  -2   2   0  141.74    8.40
   2   2   0  140.21    8.41
  -2  -2   0  141.29    8.45
  -2  -2   0  126.30    8.11
   2  -2   0  133.48    7.64
  -3   2   0   50.45    3.21
   3   2   0   53.10    3.23
   3   2   0   47.28    2.86
  -3   2   0   55.76    3.24
  -3  -2   0   43.19    3.06
  -3  -2   0   53.13    3.25
   3  -2   0   47.86    2.94
   4  -2   0   16.25    1.16
  -4  -2   0   14.09    1.15
   4   2   0   18.17    1.30
  -4  -2   0   18.06    1.30
  -4   2   0   20.14    1.31
   4   2   0   17.47    1.10
  -4   2   0   16.78    1.27
  -5  -2   0   41.75    2.61
  -5   2   0   40.74    2.79
  -5  -2   0   38.49    2.82
   5   2   0   43.68    2.49
   5  -2   0   37.21    2.54
   5   2   0   40.64    2.81
  -5   2   0   46.39    2.84
  -6  -2   0   16.63    1.42
   6   2   0   17.70    1.46
  -6   2   0   15.66    1.38
  -6   2   0   19.48    1.44
   6  -2   0   17.11    1.30
  -7  -2   0    6.65    0.89
  -7   2   0    7.14    0.90
   7  -2   0    5.29    0.70
   7   2   0    6.32    0.90
   8  -2   0    1.85    0.51
   8   2   0    0.75    0.53
  -8  -2   0    1.34    0.58
   8  -2   0    2.11    0.66
  -8   2   0    1.60    0.64
  -9  -2   0    0.81    0.64
  -9   2   0    1.09    0.65
   9   2   0    0.36    0.55
   9  -2   0    0.56    0.65
   0   3   0   -0.86    0.12
   0   3   0   -1.14    0.10
   0  -3   0   -0.90    0.14
   0  -3   0   -1.12    0.10
  -1  -3   0   61.87    4.07
  -1  -3   0   58.72    4.20
   1  -3   0   71.86    3.84
   1   3   0   73.35    4.19
  -1   3   0   68.15    4.19
   1  -3   0   68.37    4.04
   2   3   0   43.09    2.84
   2  -3   0   45.28    2.62
  -2   3   0   47.03    2.85
  -2   3   0   45.87    2.84
  -2  -3   0   44.02    2.76
  -2  -3   0   43.16    2.85
   2  -3   0   43.45    2.69
   3  -3   0    8.88    0.71
   3   3   0    8.86    0.60
  -3  -3   0    9.13    0.75
  -3   3   0   10.97    0.77
  -3  -3   0    8.18    0.69
   3   3   0    9.78    0.78
  -3   3   0    9.37    0.74
   4  -3   0   10.98    0.87
   4   3   0   10.35    0.76
  -4  -3   0   10.49    0.86
   4   3   0   12.07    0.96
  -4   3   0   12.59    0.93
  -4  -3   0   11.79    0.95
  -4   3   0   13.19    0.96
  -5  -3   0   15.15    1.12
   5   3   0   16.33    1.27
  -5   3   0   16.05    1.24
  -5   3   0   14.54    1.22
  -5  -3   0   16.89    1.27
   5   3   0   14.84    1.03
   5  -3   0   15.26    1.15
  -6   3   0    5.03    0.68
  -6  -3   0    4.61    0.72
   6  -3   0    4.66    0.65
  -6   3   0    5.59    0.72
   6   3   0    4.64    0.81
   7  -3   0   26.42    1.87
  -7  -3   0   26.29    2.07
   7   3   0   28.38    2.10
  -7   3   0   27.18    2.05
  -8  -3   0    3.93    0.76
  -8   3   0    4.50    0.78
   8  -3   0    2.10    0.57
   8   3   0    1.36    0.65
   8  -3   0    3.35    0.80
  -9  -3   0   13.29    1.51
  -9   3   0   15.54    1.51
   9  -3   0   13.21    1.55
   9   3   0   13.37    1.38
   0   4   0  322.41   19.39
   0  -4   0  310.38   17.52
   0   4   0  306.46   19.31
   0  -4   0  314.14   18.70
  -1   4   0  166.74   10.01
  -1   4   0  174.33   10.05
   1   4   0  172.41   10.01
   1  -4   0  162.10    9.11
  -1  -4   0  141.91    9.03
   1  -4   0  158.78    9.67
  -1  -4   0  155.09    9.70
  -2  -4   0   37.71    2.45
  -2   4   0   40.04    2.50
  -2   4   0   42.26    2.51
   2  -4   0   36.74    2.37
   2  -4   0   38.44    2.32
   2   4   0   37.95    2.50
  -2  -4   0   38.70    2.52
  -3  -4   0   55.19    3.45
   3   4   0   54.08    3.55
  -3   4   0   52.95    3.55
   3  -4   0   58.72    3.30
  -3  -4   0   54.50    3.57
  -3   4   0   57.00    3.54
   4  -4   0    3.03    0.42
  -4  -4   0    2.91    0.41
  -4  -4   0    3.35    0.45
  -4   4   0    2.54    0.45
  -4   4   0    3.81    0.46
   4   4   0    2.74    0.28
   4   4   0    2.12    0.44
  -5   4   0   49.88    3.34
  -5  -4   0   53.51    3.38
  -5  -4   0   50.60    3.19
  -5   4   0   51.55    3.33
   5  -4   0   48.24    3.09
   5   4   0   46.89    3.34
  -6  -4   0    9.21    0.92
   6  -4   0    7.31    0.84
  -6   4   0    9.32    0.88
   6   4   0    7.55    0.99
  -6   4   0    9.75    0.91
  -7   4   0    4.31    0.68
  -7  -4   0    3.66    0.68
  -7   4   0    3.61    0.67
   7  -4   0    4.12    0.65
   7   4   0    4.16    0.78
   8  -4   0    4.18    0.69
  -8   4   0    4.83    0.81
  -8  -4   0    4.72    0.80
   8   4   0    3.56    0.83
   9  -4   0   11.00    1.38
  -9  -4   0    9.91    1.29
  -9   4   0    9.73    1.32
   9   4   0   10.10    1.31
   9  -4   0    8.90    1.06
   0   5   0   -0.07    0.13
   0  -5   0   -0.07    0.17
   0   5   0   -0.04    0.14
   0  -5   0   -0.05    0.11
   1   5   0   55.95    4.00
  -1   5   0   72.97    4.01
  -1  -5   0   60.54    3.57
  -1  -5   0   62.56    3.91
   1  -5   0   61.85    3.87
  -1   5   0   63.94    3.98
   1  -5   0   61.44    3.65
   1   5   0   66.70    3.99
   2  -5   0    1.21    0.21
  -2   5   0    1.67    0.27
  -2  -5   0    1.24    0.26
  -2  -5   0    1.17    0.28
   2  -5   0    0.83    0.23
  -2   5   0    1.21    0.23
   2   5   0    1.35    0.30
   3  -5   0   19.70    1.30
  -3   5   0   20.95    1.44
  -3   5   0   20.77    1.42
   3   5   0   20.33    1.44
   3  -5   0   20.67    1.37
  -3  -5   0   22.84    1.47
  -3  -5   0   19.67    1.42
   4   5   0    0.11    0.27
  -4  -5   0    0.24    0.20
  -4  -5   0   -0.48    0.23
  -4   5   0   -0.21    0.21
   4  -5   0   -0.05    0.20
  -4   5   0    0.09    0.21
  -5  -5   0    0.36    0.30
   5   5   0    0.09    0.36
   5  -5   0    0.36    0.29
  -5   5   0    1.13    0.33
  -5   5   0    0.10    0.31
  -5  -5   0    1.04    0.36
   6   5   0    2.38    0.59
  -6   5   0    2.38    0.53
   6  -5   0    2.19    0.52
  -6  -5   0    2.60    0.54
  -6   5   0    2.65    0.52
  -7   5   0   -0.15    0.36
   7   5   0   -0.93    0.37
   7  -5   0   -0.85    0.29
  -7   5   0   -0.02    0.34
  -7  -5   0   -0.14    0.36
   8  -5   0    1.35    0.52
  -8  -5   0    1.10    0.60
  -8   5   0    0.84    0.52
   8   5   0    1.16    0.58
   9  -5   0    5.84    0.86
   9  -5   0    5.08    1.09
  -9   5   0    6.24    1.08
  -9  -5   0    6.81    1.09
   9   5   0    4.09    0.91
   0  -6   0  964.82   55.99
   0  -6   0  899.42   52.49
   0   6   0  937.75   58.11
   0   6   0  962.42   57.92
   1  -6   0    0.61    0.22
   1  -6   0    0.25    0.17
  -1   6   0    0.61    0.21
  -1  -6   0    0.34    0.12
   1   6   0    0.60    0.20
  -1  -6   0   -0.28    0.22
  -1   6   0    0.45    0.18
   2  -6   0   -0.30    0.24
  -2  -6   0    0.66    0.30
   2  -6   0    0.67    0.25
   3  -6   0   43.69    2.84
  -3   6   0   48.23    3.03
  -3   6   0   44.92    3.00
   3   6   0   48.16    3.02
  -3  -6   0   45.38    2.97
  -3  -6   0   46.46    3.04
   3  -6   0   48.04    2.83
  -4   6   0    2.39    0.39
   4  -6   0    2.16    0.42
  -4  -6   0    2.05    0.44
  -5   6   0    1.04    0.35
   5   6   0    1.37    0.48
  -5  -6   0    0.41    0.34
  -5  -6   0    0.47    0.30
   5  -6   0    0.30    0.32
  -5   6   0    0.66    0.36
  -6   6   0    1.27    0.47
   6  -6   0    1.17    0.45
  -6   6   0    1.66    0.44
  -6  -6   0    1.87    0.49
   6   6   0    2.70    0.63
  -6  -6   0    1.89    0.46
   7  -6   0    0.00    0.37
  -7   6   0    0.20    0.39
  -7  -6   0    0.45    0.42
   7   6   0    0.49    0.55
  -7   6   0    0.25    0.42
   8  -6   0    0.23    0.41
  -8   6   0    1.32    0.53
  -8  -6   0    0.80    0.57
   8   6   0    0.15    0.54
  -8   6   0    0.20    0.45
  -9   6   0    0.32    0.65
   9  -6   0    0.37    0.45
   0  -7   0    2.02    0.39
   1   7   0   40.17    2.60
  -1   7   0   43.50    2.63
   1   7   0   39.72    2.62
  -1  -7   0   37.14    2.32
  -1  -7   0   40.40    2.60
  -1   7   0   38.89    2.58
   1  -7   0   39.73    2.41
   1  -7   0   42.04    2.57
   2  -7   0    3.31    0.42
   2  -7   0    3.18    0.43
  -2  -7   0    3.43    0.49
  -3  -7   0    7.45    0.74
   3  -7   0    7.10    0.61
  -3   7   0    8.19    0.70
   3  -7   0    7.38    0.71
   3   7   0    8.71    0.73
  -3   7   0    8.73    0.70
  -3  -7   0    7.62    0.70
  -4  -7   0    4.67    0.61
  -4  -7   0    5.18    0.62
   4   7   0    4.09    0.59
  -4   7   0    4.33    0.56
   4  -7   0    4.76    0.59
  -4   7   0    4.94    0.58
  -5   7   0    2.15    0.44
   5  -7   0    1.41    0.43
  -5  -7   0    1.08    0.46
  -5   7   0    1.66    0.45
  -6   7   0    2.59    0.57
  -6   7   0    3.62    0.57
   6   7   0    3.68    0.67
  -6  -7   0    2.05    0.54
   6  -7   0    3.26    0.61
  -6  -7   0    2.85    0.56
   7   7   0   20.48    1.63
  -7   7   0   19.58    1.58
  -7  -7   0   19.90    1.59
  -7   7   0   17.14    1.53
   7  -7   0   18.95    1.52
  -8   7   0    3.45    0.72
  -8   7   0    2.99    0.72
  -8  -7   0    5.39    0.89
   8   7   0    3.91    0.80
   8  -7   0    3.29    0.68
  -9   7   0   10.57    1.30
   0  -8   0   30.66    2.09
   0  -8   0   30.07    1.89
   0   8   0   32.95    2.10
  -1  -8   0    0.00    0.13
   1   8   0    0.79    0.24
  -1  -8   0   -0.39    0.24
   1  -8   0    0.00    0.25
   1   8   0    1.21    0.27
   1  -8   0    0.50    0.21
  -2   8   0    3.03    0.41
   2   8   0    4.53    0.50
  -2   8   0    3.16    0.44
   2  -8   0    2.82    0.40
   2   8   0    3.27    0.47
  -2  -8   0    3.31    0.51
   2  -8   0    2.01    0.38
   3  -8   0   57.96    3.36
   3   8   0   52.91    3.57
  -3  -8   0   54.01    3.61
  -3   8   0   52.12    3.58
   3  -8   0   56.25    3.42
  -3   8   0   53.12    3.55
  -3  -8   0   60.16    3.58
  -4  -8   0    6.05    0.61
   4   8   0    6.19    0.69
  -4   8   0    5.03    0.63
   4  -8   0    3.86    0.60
  -4  -8   0    4.15    0.65
  -4   8   0    5.31    0.62
   5   8   0    5.95    0.73
  -5   8   0    4.27    0.60
  -5  -8   0    4.45    0.71
  -5   8   0    5.23    0.67
   5  -8   0    4.41    0.64
  -5  -8   0    4.10    0.61
   6   8   0   19.25    1.59
   6  -8   0   18.62    1.51
  -6   8   0   18.05    1.54
  -6  -8   0   22.54    1.60
  -6  -8   0   19.13    1.54
  -6   8   0   20.45    1.55
  -7  -8   0    7.33    0.88
   7  -8   0    6.91    0.90
   7   8   0    7.26    1.03
  -7   8   0    6.75    0.87
  -7   8   0    7.52    0.94
   8   8   0   11.45    1.40
  -8   8   0   12.45    1.19
  -8  -8   0   11.78    1.23
   8  -8   0   13.66    1.24
  -8   8   0   10.42    1.27
   0   9   0   15.46    1.16
   1  -9   0   38.69    2.36
  -1   9   0   33.64    2.36
   1   9   0   33.63    2.36
  -1  -9   0   34.40    2.08
  -1  -9   0   36.06    2.38
   1  -9   0   36.20    2.18
   1   9   0   35.23    2.34
   2  -9   0   12.33    1.08
   2   9   0   12.13    1.08
  -2   9   0   16.90    1.11
   2   9   0   14.26    1.10
   4   9   0    0.34    0.38
  -4   9   0    0.16    0.27
   4  -9   0    0.00    0.29
  -4  -9   0    0.28    0.30
  -4  -9   0    0.10    0.36
  -4   9   0   -0.17    0.29
   5  -9   0    8.77    1.04
  -5   9   0   12.62    1.08
   5   9   0   14.36    1.16
  -5  -9   0   12.80    1.08
  -5   9   0   13.34    1.10
   6  -9   0   14.86    1.28
  -6  -9   0   13.39    1.23
   6   9   0   14.79    1.36
  -6   9   0   14.34    1.26
  -6   9   0   14.82    1.27
  -6  -9   0   17.07    1.36
   7   9   0   11.57    1.28
  -7   9   0   10.04    1.05
  -7   9   0    9.97    1.02
  -7  -9   0    8.91    0.98
   7  -9   0   10.39    1.10
   8  -9   0    0.16    0.45
  -8   9   0    1.26    0.61
   8   9   0    1.63    0.65
  -8  -9   0    1.21    0.45
  -8   9   0    1.40    0.57
   0 -10   0   34.99    2.31
   0  10   0   31.30    2.27
   0 -10   0   34.87    2.07
   2  10   0    8.28    0.81
   2 -10   0    8.81    0.77
  -2 -10   0    6.59    0.86
   2 -10   0    8.67    0.82
   2  10   0    7.90    0.77
  -2  10   0    8.19    0.76
   3 -10   0   17.15    1.32
   4  10   0    8.15    0.93
  -4  10   0    9.07    0.84
  -4  10   0    7.42    0.81
  -4 -10   0    8.65    0.98
   4 -10   0    8.99    0.90
   5  10   0    9.96    0.98
  -5 -10   0    7.47    0.98
  -5 -10   0    7.74    0.85
  -6 -10   0    0.32    0.45
  -6  10   0    0.19    0.37
   6  10   0   -0.12    0.44
  -6 -10   0    0.02    0.30
   6 -10   0   -0.08    0.38
  -6  10   0    0.09    0.37
   7 -10   0    5.41    0.83
  -7  10   0    4.25    0.71
   7  10   0    1.82    0.64
  -8  10   0    4.65    0.88
   8  10   0    4.47    0.94
   0 -11   0   -0.38    0.32
   0  11   0    0.31    0.25
   0 -11   0    0.43    0.24
  -1  11   0   67.47    4.47
   1 -11   0   67.31    4.06
   1 -11   0   72.93    4.41
   1  11   0   64.04    4.47
  -1 -11   0   72.09    4.44
   2  11   0   17.69    1.40
   2 -11   0   18.68    1.33
  -2  11   0   18.13    1.39
   2  11   0   16.66    1.39
   2 -11   0   21.47    1.44
  -2 -11   0   17.45    1.48
  -3  11   0    2.93    0.49
   3  11   0    2.68    0.57
  -3 -11   0    0.76    0.53
   3 -11   0    3.06    0.53
   3  11   0    2.79    0.55
   4  11   0   24.86    1.81
  -4 -11   0   23.71    1.85
  -4  11   0   23.27    1.75
   4  11   0   21.35    1.75
   4 -11   0   24.08    1.72
  -5  11   0   10.72    1.02
  -5 -11   0   11.09    1.17
   5  11   0   10.84    1.22
   5 -11   0   12.62    1.11
   6 -11   0    8.15    1.02
   6  11   0    9.98    1.17
  -6  11   0    9.37    0.99
  -6 -11   0   11.70    1.17
  -6 -11   0    8.58    0.91
  -7  11   0    4.10    0.76
   7 -11   0    3.56    0.74
  -7 -11   0    4.51    0.70
   7  11   0    3.80    0.83
   0  12   0   29.92    2.16
   0 -12   0   31.83    2.22
   1  12   0   11.30    0.93
  -1 -12   0    7.88    1.02
   1 -12   0   10.55    0.87
   1 -12   0    8.17    1.00
  -1  12   0   10.57    0.93
   2 -12   0    0.28    0.34
   2 -12   0   -0.60    0.43
  -2 -12   0   -0.39    0.47
   2  12   0    1.34    0.39
  -3  12   0   30.05    2.16
   3  12   0   28.31    2.17
  -3 -12   0   32.67    2.27
   3 -12   0   31.15    2.06
   3  12   0   28.86    2.14
   4  12   0    2.59    0.66
   4  12   0    2.47    0.58
  -4 -12   0    2.47    0.62
   4 -12   0    2.19    0.55
  -4  12   0    2.44    0.54
  -5 -12   0    1.32    0.52
  -5  12   0    2.42    0.52
   5  12   0    1.48    0.60
   5  12   0    1.45    0.59
   5 -12   0    1.26    0.49
   6  12   0    0.49    0.64
   6 -12   0    2.45    0.65
  -6 -12   0    1.54    0.67
  -6  12   0    2.16    0.60
  -7 -12   0   -0.38    0.59
  -7  12   0   -0.55    0.53
   7  12   0    0.04    0.59
   0 -13   0    0.63    0.49
  -1  13   0    1.28    0.43
   1 -13   0    0.82    0.33
   1 -13   0    0.71    0.43
  -1 -13   0    0.79    0.45
   1  13   0    0.61    0.38
  -2 -13   0    0.80    0.54
  -2  13   0    0.69    0.42
   2 -13   0    0.90    0.46
  -3 -13   0    2.10    0.61
  -3  13   0    3.67    0.59
   3  13   0    3.28    0.60
   3 -13   0    3.64    0.62
  -4 -13   0    0.64    0.46
  -4  13   0    0.62    0.37
   4 -13   0    0.56    0.37
   4  13   0    0.18    0.34
  -5 -13   0    3.15    0.72
  -5  13   0    1.43    0.49
   5 -13   0    3.08    0.64
   5  13   0    2.11    0.66
  -6  13   0    0.69    0.55
   6 -13   0    0.31    0.54
  -6 -13   0    0.87    0.65
   6  13   0    0.59    0.67
  -7 -13   0    0.35    0.70
   0 -14   0    0.28    0.42
   0  14   0    0.54    0.36
   1 -14   0    1.65    0.51
  -1 -14   0    1.22    0.54
  -1  14   0    1.38    0.46
   1  14   0    1.88    0.49
  -2  14   0    7.72    0.83
  -2 -14   0    8.58    1.01
   2  14   0    7.62    0.90
   2 -14   0    6.31    0.78
  -3 -14   0    2.25    0.61
   3  14   0    2.99    0.60
   3 -14   0    1.30    0.51
  -3  14   0    2.61    0.56
   4 -14   0   -0.39    0.37
  -4 -14   0    0.47    0.51
   4  14   0    0.52    0.45
  -4  14   0    0.67    0.37
  -5 -14   0    1.73    0.66
   5 -14   0    1.68    0.64
   5  14   0    1.37    0.64
  -5  14   0    2.76    0.65
  -6 -14   0    1.39    0.76
   0 -15   0    0.35    0.45
   0  15   0    0.47    0.40
   1 -15   0    5.93    0.84
  -1  15   0    4.47    0.74
   1  15   0    5.29    0.76
  -1 -15   0    6.26    0.88
   2  15   0    2.25    0.57
  -2  15   0    1.66    0.52
  -2 -15   0    1.12    0.52
  -3 -15   0    1.06    0.50
   3  15   0    1.78    0.63
   3 -15   0    1.87    0.52
  -3  15   0    2.16    0.56
  -4 -15   0    3.28    0.80
   4  15   0    3.90    0.75
  -4  15   0    2.80    0.63
   4 -15   0    4.42    0.74
   5 -15   0   -0.42    0.50
  -5 -15   0   -0.47    0.57
   5  15   0    0.20    0.57
  -5  15   0    0.03    0.56
   0 -16   0    7.37    0.94
   0  16   0    5.44    0.82
   1  16   0    0.76    0.46
  -1 -16   0    0.25    0.44
  -1  16   0    0.10    0.43
   1 -16   0    0.54    0.42
  -2 -16   0    1.72    0.55
   2  16   0    1.16    0.57
  -2  16   0    1.03    0.54
  -3  16   0    7.19    1.00
  -3 -16   0    9.02    1.11
   3  16   0    7.60    1.09
   4 -16   0    0.07    0.48
   4  16   0    0.43    0.62
  -4  16   0    1.31    0.59
   0  17   0    0.44    0.56
   0 -17   0    1.11    0.51
   1  17   0    0.81    0.63
  -1  17   0    1.90    0.63
  -1 -17   0    1.93    0.59
   1 -17   0    2.42    0.63
  -2  17   0    1.34    0.65
  -2 -17   0    2.56    0.71
   2  17   0    0.66    0.64
   3  17   0    0.34    0.67
  -3  17   0   -0.03    0.61
   4 -17   0    1.00    0.61
   0 -18   0    0.98    0.55
   0  18   0    0.09    0.67
   1  18   0    1.37    0.76
  -1  18   0    0.83    0.65
   9   0  -1    0.15    0.62
  -9   0   1    0.67    0.62
   8   0  -1    1.05    0.53
  -8   0   1    0.68    0.50
   7   0  -1   -0.14    0.39
  -7   0   1   -0.17    0.35
   7   0  -1    0.00    0.29
   6   0  -1   -0.24    0.24
  -6   0   1   -0.39    0.33
  -5   0   1   -0.13    0.32
  -5   0   1   -0.13    0.26
   5   0  -1    0.31    0.21
   4   0  -1    0.02    0.16
  -4   0   1   -0.05    0.28
  -4   0   1   -0.04    0.14
  -4   0   1    0.11    0.24
   3   0  -1   -0.12    0.12
  -3   0   1    0.04    0.11
  -3   0   1   -0.22    0.23
  -3   0   1    0.05    0.18
   2   0  -1   -0.41    0.12
  -2   0   1    0.04    0.18
  -2   0   1   -0.68    0.23
  -2   0   1    0.09    0.12
  -1   0   1  -10.43    0.26
  -1   0   1  -11.26    0.28
  -1   0   1   -9.92    0.32
   1   0  -1   -9.79    0.26
   0   0  -1   -0.01    0.02
   1   0   1   -1.43    0.12
   1   0   1   -1.26    0.08
  -1   0  -1   -1.41    0.11
  -1   0  -1   -1.50    0.06
  -2   0  -1    0.05    0.17
  -2   0  -1    0.24    0.09
   2   0   1    0.01    0.12
  -3   0  -1   -0.07    0.10
   3   0   1   -0.25    0.12
  -3   0  -1   -0.05    0.19
   4   0   1    0.07    0.19
  -4   0  -1   -0.04    0.24
  -4   0  -1    0.00    0.12
   4   0   1    0.05    0.28
   5   0   1    0.09    0.22
   5   0   1    0.22    0.36
  -5   0  -1   -0.18    0.26
   6   0   1    0.32    0.42
   6   0   1   -0.16    0.25
  -6   0  -1    0.48    0.40
   7   0   1   -0.03    0.42
  -7   0  -1   -0.17    0.42
   8   0   1    0.66    0.49
  -8   0  -1    0.24    0.47
   9   0   1    0.63    0.63
  -9   0  -1   -0.30    0.56
   9  -1  -1    8.31    1.21
  -9  -1   1    6.52    1.10
  -9   1   1    9.37    1.24
   9   1  -1   10.22    1.19
  -8  -1   1    5.93    0.90
   8  -1  -1    6.60    0.95
  -8   1   1    5.38    0.88
   8   1  -1    5.29    0.88
  -7   1   1    0.27    0.41
   7  -1  -1    0.69    0.35
  -7  -1   1    0.65    0.44
   7   1  -1    0.38    0.48
  -6   1   1  130.19    8.92
   6   1  -1  134.98    8.94
  -6   1   1  142.81    9.00
   6  -1  -1  136.84    8.09
   6   1  -1  155.00    8.08
  -6  -1   1  143.38    9.01
   5   1  -1    5.73    0.77
  -5  -1   1    4.95    0.64
  -5   1   1    5.66    0.67
  -5   1   1    5.71    0.70
   5  -1  -1    4.75    0.55
   5   1  -1    5.48    0.53
  -4  -1   1  106.01    6.40
  -4   1   1  102.70    6.39
   4   1  -1  102.41    5.73
  -4  -1   1   95.44    6.04
   4  -1  -1  100.84    5.76
  -4   1   1   95.23    6.34
  -3   1   1   99.18    6.41
  -3  -1   1  116.07    6.47
   3   1  -1  107.38    5.80
   3  -1  -1   90.00    5.81
  -3  -1   1  106.74    6.44
  -3  -1   1   98.96    6.15
  -3   1   1   97.98    6.45
   2   1  -1  504.77   26.47
   2  -1  -1  423.41   26.48
  -2   1   1  490.23   29.22
  -2  -1   1  432.39   28.19
  -2  -1   1  519.97   29.24
   1  -1  -1    1.80    0.16
  -1  -1   1    1.91    0.20
  -1   1   1    1.85    0.22
   1  -1  -1    2.05    0.20
  -1  -1   1    2.86    0.23
  -1  -1   1    2.44    0.17
  -1   1   1    2.29    0.25
  -1  -1   1    2.29    0.25
   0  -1   1  352.68   20.64
   0   1   1  366.54   20.67
   0  -1   1  378.49   22.00
   0   1  -1  380.45   22.92
  -1  -1  -1  101.16    6.42
   1   1   1  104.65    6.02
  -1   1  -1  120.53    6.69
  -1   1  -1   98.29    6.42
   1  -1   1  107.81    6.04
  -1   1  -1   99.43    6.65
  -1  -1  -1  103.61    6.68
   1   1   1  124.01    6.66
  -2  -1  -1  427.74   27.90
  -2  -1  -1  438.06   26.82
   2  -1   1  426.64   25.19
  -2   1  -1  475.90   27.90
   2   1   1  470.49   25.17
   2   1   1  446.56   27.80
  -2   1  -1  470.65   27.81
   3   1   1   22.19    1.59
  -3  -1  -1   20.86    1.59
   3  -1   1   22.94    1.43
   3   1   1   24.34    1.40
  -3  -1  -1   22.67    1.45
  -3   1  -1   25.39    1.61
  -3   1  -1   22.78    1.59
  -4   1  -1   22.00    1.48
   4  -1   1   20.56    1.31
  -4  -1  -1   20.28    1.29
   4   1   1   20.08    1.47
  -4  -1  -1   19.04    1.47
  -4   1  -1   18.86    1.45
   4   1   1   18.86    1.26
  -5  -1  -1   72.95    5.55
   5   1   1   76.31    5.52
   5  -1   1   98.03    5.04
   5   1   1   93.28    4.99
  -5   1  -1   89.67    5.58
   6  -1   1    9.15    0.86
   6  -1   1   10.29    1.03
   6   1   1    9.93    0.83
  -6   1  -1   10.56    1.00
  -6  -1  -1    9.58    0.99
   6   1   1   10.43    1.02
   7  -1   1    2.13    0.61
  -7   1  -1    2.44    0.62
  -7  -1  -1    2.21    0.58
   7   1   1    1.95    0.59
   7  -1   1    2.48    0.49
   8  -1   1   14.77    1.29
  -8   1  -1   14.45    1.33
   8   1   1   11.86    1.26
  -8  -1  -1   11.28    1.25
  -9  -1  -1    2.41    0.79
  -9   1  -1    1.80    0.75
   9  -1   1    2.13    0.75
   9   1   1    2.55    0.78
  -9  -2   1    1.49    0.72
   9   2  -1    0.68    0.57
  -9   2   1    1.41    0.70
   9  -2  -1    1.64    0.77
   8  -2  -1   20.86    1.71
   8   2  -1   20.88    1.70
   8  -2  -1   19.57    1.52
  -8   2   1   19.24    1.71
  -8  -2   1   19.29    1.70
   7  -2  -1    4.33    0.64
  -7   2   1    6.58    0.85
  -7  -2   1    5.82    0.83
   7   2  -1    5.76    0.87
   6   2  -1    0.80    0.48
   6  -2  -1    0.54    0.35
  -6   2   1    0.39    0.37
  -6   2   1   -0.01    0.32
  -6  -2   1    0.58    0.40
   5   2  -1   19.99    1.15
   5   2  -1   17.69    1.36
  -5   2   1   18.13    1.31
  -5   2   1   15.96    1.31
   5  -2  -1   13.86    1.16
  -5  -2   1   15.88    1.16
  -5  -2   1   15.81    1.30
  -4   2   1   28.54    1.95
   4   2  -1   30.61    1.99
   4   2  -1   30.69    1.73
   4  -2  -1   25.81    1.78
  -4  -2   1   29.96    1.99
  -4  -2   1   25.52    1.83
  -4   2   1   28.91    1.97
   3   2  -1  154.63    8.21
  -3   2   1  130.03    9.12
  -3  -2   1  129.39    8.75
   3  -2  -1  140.31    8.27
   3   2  -1  151.11    9.12
  -3  -2   1  167.52    9.16
  -3   2   1  148.90    9.09
  -2  -2   1   92.02    5.81
  -2   2   1   89.58    6.03
  -2   2   1  103.90    6.02
   2   2  -1   94.86    5.42
  -2  -2   1  111.63    6.06
   2  -2  -1   89.86    5.48
   2   2  -1   93.27    6.02
  -1   2   1  128.39    9.10
  -1  -2   1  165.07    9.12
   1  -2  -1  152.44    8.26
   1  -2  -1  143.39    8.76
  -1  -2   1  145.53    8.79
   0  -2  -1   12.77    0.71
   0   2   1   10.71    0.77
   0   2  -1   12.57    0.79
   0  -2   1   11.84    0.72
   0  -2  -1   12.55    0.78
   0  -2   1   11.95    0.77
  -1   2  -1 1250.01   91.35
  -1  -2  -1 1463.78   88.05
  -1   2  -1 1638.26   91.77
  -1  -2  -1 1388.46   91.66
   1  -2   1 1452.50   82.76
   1  -2   1 1475.12   88.26
   1   2   1 1715.28   91.39
  -2  -2  -1   46.34    2.93
  -2   2  -1   46.88    3.03
   2   2   1   52.79    3.05
   2   2   1   47.44    2.71
  -2  -2  -1   44.62    3.06
   2  -2   1   49.38    2.79
  -3  -2  -1    3.21    0.42
   3   2   1    2.79    0.29
  -3   2  -1    2.86    0.42
   3   2   1    3.78    0.45
   3  -2   1    3.41    0.38
  -3   2  -1    4.21    0.43
  -3  -2  -1    2.84    0.33
  -4  -2  -1  235.39   14.19
  -4   2  -1  212.07   14.75
   4   2   1  237.80   14.77
  -4  -2  -1  226.07   14.84
   4   2   1  254.88   13.34
   4  -2   1  221.40   13.40
  -4   2  -1  273.61   14.86
  -5  -2  -1   40.28    2.96
   5  -2   1   41.19    2.66
  -5  -2  -1   45.41    2.74
  -5   2  -1   42.26    2.95
   5   2   1   46.37    2.60
  -5   2  -1   43.70    2.92
   5   2   1   43.50    2.94
  -6  -2  -1   90.09    5.96
   6  -2   1   89.27    5.36
  -6   2  -1   93.67    5.94
   6   2   1   91.24    5.92
  -7   2  -1    4.56    0.76
  -7  -2  -1    3.99    0.75
   7  -2   1    4.39    0.79
   7   2   1    5.99    0.87
   7  -2   1    3.56    0.59
   8   2   1    3.11    0.77
  -8  -2  -1    3.51    0.75
   8  -2   1    4.02    0.80
  -8   2  -1    3.04    0.72
  -9   2  -1   30.99    2.47
   9  -2   1   28.21    2.38
  -9  -2  -1   30.57    2.48
   9   2   1   33.13    2.44
  -9  -3   1    6.82    1.07
   9   3  -1    6.67    1.05
   9  -3  -1    7.74    1.18
  -9   3   1    6.61    1.13
  -8  -3   1    1.06    0.57
  -8   3   1    1.70    0.62
   8   3  -1    1.46    0.62
   8  -3  -1    0.67    0.44
   7   3  -1   -0.01    0.41
  -7   3   1    0.06    0.41
   7  -3  -1    0.14    0.34
  -7   3   1   -0.15    0.35
  -7  -3   1    0.65    0.43
   6  -3  -1   29.66    2.13
  -6   3   1   32.07    2.33
  -6   3   1   33.55    2.34
  -6  -3   1   33.86    2.37
   6   3  -1   34.54    2.39
  -5   3   1    5.12    0.66
   5  -3  -1    3.56    0.51
   5   3  -1    4.16    0.43
  -5  -3   1    3.84    0.49
  -5   3   1    4.79    0.61
  -5  -3   1    5.58    0.64
   5   3  -1    4.18    0.66
   4  -3  -1    0.68    0.27
  -4   3   1    1.17    0.32
  -4  -3   1    0.27    0.23
  -4   3   1    0.77    0.28
   4   3  -1    0.76    0.17
  -4  -3   1    0.57    0.27
   4   3  -1    0.74    0.30
   3   3  -1  107.09    6.81
  -3   3   1  103.82    6.81
  -3  -3   1  114.26    6.84
   3  -3  -1  105.92    6.21
  -3   3   1  115.94    6.80
   3   3  -1  106.64    6.11
  -3  -3   1  105.09    6.57
  -2  -3   1    2.04    0.27
   2  -3  -1    1.73    0.25
   2   3  -1    1.91    0.29
  -2   3   1    2.13    0.29
   2  -3  -1    1.63    0.18
  -2  -3   1    1.77    0.27
  -2   3   1    2.11    0.26
  -2  -3   1    1.57    0.16
   1   3  -1    1.83    0.24
   1  -3  -1    1.69    0.19
   1  -3  -1    1.35    0.20
  -1  -3   1    1.10    0.14
  -1  -3   1    1.05    0.23
  -1   3   1    1.78    0.23
  -1   3   1    1.43    0.20
  -1  -3   1    1.11    0.20
   0   3   1   35.42    2.29
   0   3  -1   37.16    2.31
   0  -3  -1   35.76    2.24
   0   3   1   36.21    2.29
   0  -3   1   35.12    2.09
   0  -3   1   37.57    2.24
   0  -3  -1   37.26    2.08
  -1   3  -1   27.88    1.56
  -1  -3  -1   20.05    1.54
   1   3   1   27.74    1.57
   1  -3   1   23.17    1.43
  -1  -3  -1   23.28    1.52
   1  -3   1   21.64    1.47
  -2   3  -1   -0.01    0.12
   2  -3   1    0.12    0.15
   2  -3   1    0.00    0.08
  -2  -3  -1    0.07    0.13
  -2   3  -1    0.15    0.15
   2   3   1   -0.03    0.18
  -2  -3  -1   -0.06    0.14
   3   3   1   15.82    1.06
   3  -3   1   17.31    1.18
  -3  -3  -1   16.91    1.20
  -3  -3  -1   17.21    1.27
  -3   3  -1   20.66    1.28
   3   3   1   18.19    1.27
  -3   3  -1   18.78    1.26
   4   3   1    6.46    0.67
   4   3   1    6.38    0.50
  -4   3  -1    6.49    0.66
   4  -3   1    6.17    0.60
  -4  -3  -1    5.85    0.56
  -4   3  -1    7.38    0.65
  -4  -3  -1    7.00    0.66
   5  -3   1    1.12    0.35
  -5   3  -1    0.59    0.33
  -5   3  -1    0.67    0.34
  -5  -3  -1    0.48    0.29
  -5  -3  -1    0.56    0.36
   5   3   1    1.08    0.44
  -6   3  -1   12.96    1.14
  -6  -3  -1   13.75    1.18
   6   3   1   13.43    1.20
  -6   3  -1   12.44    1.13
   6  -3   1   12.65    1.06
   7   3   1   -0.32    0.45
  -7  -3  -1    0.73    0.47
  -7   3  -1    0.65    0.44
   7  -3   1   -0.32    0.32
   8   3   1    0.08    0.55
   8  -3   1    0.48    0.53
   8  -3   1   -0.11    0.40
  -8  -3  -1   -0.30    0.48
  -8   3  -1    0.48    0.52
  -9  -3  -1    1.30    0.73
  -9   3  -1    1.69    0.81
   9   3   1    2.75    0.77
   9  -3   1    1.79    0.76
  -9   4   1   -0.10    0.69
  -9  -4   1   -0.07    0.60
   9  -4  -1   -0.20    0.40
   9  -4  -1    0.33    0.73
   9   4  -1   -0.20    0.58
   8  -4  -1    0.37    0.41
  -8  -4   1    1.04    0.54
  -8   4   1    1.15    0.56
   8   4  -1   -0.05    0.56
  -7   4   1    0.83    0.42
  -7   4   1    0.61    0.45
   7   4  -1    0.73    0.55
  -7  -4   1    0.60    0.45
   7  -4  -1    0.62    0.41
  -6   4   1    0.23    0.34
   6   4  -1   -0.20    0.42
  -6  -4   1    0.21    0.35
   6  -4  -1    0.07    0.30
  -6   4   1   -0.03    0.32
  -5   4   1   30.82    2.01
  -5   4   1   27.83    2.00
  -5  -4   1   26.07    1.91
   5   4  -1   26.95    2.02
  -5  -4   1   31.12    2.03
   5  -4  -1   27.39    1.87
  -4   4   1    8.50    0.74
  -4  -4   1    9.91    0.77
   4   4  -1    8.33    0.59
   4  -4  -1    8.09    0.71
  -4  -4   1    7.84    0.70
   4   4  -1    8.43    0.77
  -4   4   1    8.49    0.75
  -3   4   1   13.00    0.99
  -3  -4   1   13.10    1.02
  -3   4   1   15.59    1.03
   3  -4  -1   14.08    0.98
   3   4  -1   14.57    1.03
   3   4  -1   13.61    0.84
  -3  -4   1   12.12    1.01
   2  -4  -1   45.44    2.72
  -2   4   1   50.19    2.95
  -2  -4   1   46.94    2.89
   2   4  -1   45.70    2.93
  -2   4   1   42.26    2.93
   2  -4  -1   45.23    2.80
  -2  -4   1   46.50    2.96
   1  -4  -1   11.39    0.77
  -1  -4   1    9.37    0.82
   1   4  -1   11.06    0.81
   1  -4  -1   11.56    0.78
  -1  -4   1   11.86    0.69
  -1   4   1   12.57    0.82
   0  -4   1    1.17    0.26
   0  -4  -1    1.87    0.25
   0   4   1    1.49    0.21
   0   4  -1    2.70    0.27
   0   4   1    1.84    0.24
   0  -4  -1    2.57    0.22
   0  -4   1    1.56    0.22
   1  -4   1   11.78    0.83
  -1  -4  -1   12.22    0.89
   1   4   1   14.11    0.90
  -1  -4  -1   12.15    0.88
   1  -4   1   11.77    0.85
   2  -4   1   32.01    2.05
  -2  -4  -1   33.23    2.12
   2  -4   1   36.03    2.03
  -2   4  -1   36.18    2.18
  -2  -4  -1   30.41    2.18
  -2   4  -1   31.01    2.14
   2   4   1   34.88    2.17
  -3  -4  -1  147.21    8.58
   3   4   1  131.07    8.85
  -3  -4  -1  131.86    8.89
   3  -4   1  146.45    8.10
  -3   4  -1  141.98    8.84
  -3   4  -1  152.72    8.90
  -4  -4  -1    0.97    0.30
  -4  -4  -1    0.82    0.26
   4   4   1    0.99    0.18
  -4   4  -1    0.88    0.29
   4   4   1    1.48    0.39
  -4   4  -1    1.39    0.34
   4  -4   1    1.65    0.33
   5  -4   1    0.44    0.30
   5   4   1    0.64    0.41
  -5   4  -1    0.34    0.31
  -5  -4  -1   -0.12    0.26
  -5  -4  -1    0.38    0.30
  -5   4  -1    0.13    0.24
  -6   4  -1    1.99    0.47
   6  -4   1    1.06    0.41
  -6  -4  -1    0.88    0.42
   6   4   1    0.39    0.49
  -6   4  -1    1.20    0.45
   7  -4   1   13.91    1.17
  -7  -4  -1   13.66    1.26
   7   4   1   13.29    1.28
  -7   4  -1   13.86    1.23
   8   4   1   -0.65    0.45
  -8   4  -1    0.47    0.45
   8  -4   1    0.31    0.50
   8  -4   1   -0.56    0.35
  -8  -4  -1    0.05    0.46
   9  -4   1    1.36    0.77
  -9   4  -1    0.72    0.70
  -9  -4  -1    0.59    0.65
   9   4   1    0.88    0.67
   9  -5  -1    7.70    1.00
  -9   5   1    7.74    1.19
  -9  -5   1    9.93    1.29
   9   5  -1    8.64    1.17
  -8   5   1    0.96    0.49
   8  -5  -1    0.99    0.50
   8   5  -1    0.68    0.59
  -8  -5   1    1.00    0.56
  -8   5   1    0.38    0.53
   7  -5  -1    8.66    0.97
  -7   5   1    8.96    0.96
  -7   5   1    9.55    0.96
  -7  -5   1    9.58    0.96
   7   5  -1    9.21    1.14
  -6   5   1   20.74    1.57
  -6   5   1   19.06    1.54
   6   5  -1   19.44    1.60
  -6  -5   1   20.51    1.57
   6  -5  -1   21.45    1.52
  -5  -5   1    0.19    0.30
  -5   5   1    0.38    0.28
   5  -5  -1    0.19    0.26
  -5  -5   1    0.04    0.27
  -5   5   1    0.10    0.30
   5   5  -1    0.40    0.38
  -4  -5   1    0.29    0.30
  -4   5   1    0.66    0.32
   4  -5  -1    0.77    0.29
  -4  -5   1    0.86    0.30
   4   5  -1    0.90    0.34
  -4   5   1    1.36    0.31
   3   5  -1    9.43    0.62
   3  -5  -1   10.52    0.79
  -3   5   1   10.04    0.78
  -3  -5   1   10.25    0.81
  -3   5   1   10.71    0.81
   3  -5  -1   10.05    0.68
   3   5  -1   11.01    0.82
  -3  -5   1    9.15    0.83
  -2  -5   1   -0.16    0.18
  -2  -5   1    0.06    0.15
  -2  -5   1    0.09    0.07
  -2   5   1   -0.07    0.12
  -2   5   1    0.23    0.17
   2  -5  -1    0.08    0.14
   2  -5  -1    0.13    0.16
   2   5  -1    0.27    0.19
   1  -5  -1   45.19    2.56
  -1  -5   1   42.77    2.74
   1  -5  -1   43.41    2.71
  -1   5   1   45.03    2.78
  -1   5   1   43.19    2.77
   1   5  -1   43.64    2.80
  -1  -5   1   41.70    2.48
   0  -5  -1   12.31    0.83
   0   5  -1   12.48    0.92
   0  -5   1   12.19    0.84
   0   5   1   14.05    0.93
   0   5   1   16.13    0.93
   0  -5  -1   12.38    0.92
   0  -5   1   12.35    0.93
  -1  -5  -1    7.41    0.50
   1  -5   1    7.03    0.60
   1   5   1    7.78    0.62
   1   5   1    9.52    0.65
  -1  -5  -1    7.63    0.64
   1  -5   1    6.94    0.62
  -2  -5  -1    0.88    0.24
   2  -5   1    1.18    0.24
  -2   5  -1    1.59    0.26
  -2   5  -1    1.12    0.23
  -2  -5  -1    0.76    0.22
   2  -5   1    0.98    0.19
   2   5   1    1.10    0.28
  -3   5  -1   23.93    1.56
  -3  -5  -1   24.01    1.57
   3   5   1   22.07    1.59
  -3   5  -1   24.02    1.58
   3  -5   1   21.03    1.43
   3  -5   1   23.19    1.50
  -3  -5  -1   22.26    1.59
  -4  -5  -1   28.95    1.91
  -4   5  -1   29.16    1.96
  -4   5  -1   29.30    1.95
   4   5   1   27.16    1.97
   4  -5   1   29.97    1.86
  -4  -5  -1   26.26    1.96
  -5  -5  -1    5.61    0.62
   5  -5   1    5.40    0.64
   5   5   1    5.26    0.74
  -5  -5  -1    4.94    0.64
  -5   5  -1    5.08    0.64
  -5   5  -1    5.44    0.66
   6  -5   1    0.06    0.31
  -6  -5  -1    0.53    0.35
   6   5   1    0.42    0.44
  -6   5  -1   -0.05    0.30
  -6   5  -1   -0.01    0.33
  -7   5  -1    1.72    0.54
   7  -5   1    1.49    0.50
  -7   5  -1    2.28    0.56
  -7  -5  -1    1.92    0.54
   7   5   1    1.87    0.62
  -8   5  -1    7.69    0.98
   8  -5   1    7.06    0.90
  -8  -5  -1    7.56    1.05
   8   5   1    7.51    1.03
   9  -5   1   -0.18    0.46
   9  -5   1    0.68    0.73
  -9  -5  -1   -0.08    0.61
  -9   5  -1    0.40    0.66
   9  -6  -1   -0.25    0.40
  -9   6   1    0.00    0.66
   8  -6  -1    6.30    0.85
   8   6  -1    6.40    0.97
  -8   6   1    6.16    0.90
  -8   6   1    5.88    0.89
  -8  -6   1    7.35    1.01
  -7   6   1    5.03    0.78
   7   6  -1    4.05    0.82
   7  -6  -1    5.01    0.72
  -7   6   1    5.31    0.77
  -7  -6   1    5.23    0.79
   6  -6  -1   10.42    0.98
  -6   6   1    9.50    0.95
  -6  -6   1   10.58    0.98
   6   6  -1    9.15    1.00
  -6  -6   1   10.76    0.96
  -6   6   1   10.07    0.95
  -5   6   1   14.50    1.18
  -5  -6   1   15.15    1.18
   5   6  -1   15.07    1.23
  -5  -6   1   15.00    1.22
   5  -6  -1   16.82    1.21
  -5   6   1   13.79    1.18
  -4  -6   1   10.07    0.87
  -4   6   1    9.70    0.85
   4  -6  -1   11.63    0.89
   4   6  -1   10.80    0.91
  -4   6   1   10.82    0.88
  -4  -6   1    9.82    0.90
  -3   6   1   27.32    1.75
  -3   6   1   26.37    1.75
   3   6  -1   28.33    1.76
   3  -6  -1   23.60    1.62
  -3  -6   1   25.80    1.77
   3  -6  -1   25.12    1.66
  -3  -6   1   22.30    1.74
  -2  -6   1  117.65    7.16
   2  -6  -1  118.82    7.09
  -2   6   1  114.77    7.34
   2   6  -1  114.91    7.32
   2  -6  -1  117.87    6.73
  -2   6   1  120.70    7.36
  -2  -6   1  116.35    6.58
   1  -6  -1    3.70    0.38
   1   6  -1    3.92    0.41
  -1   6   1    3.85    0.42
   1  -6  -1    4.00    0.41
  -1  -6   1    3.46    0.45
  -1  -6   1    3.13    0.30
   0  -6  -1  324.40   20.03
   0   6   1  321.60   20.76
   0  -6  -1  329.62   18.76
   0   6  -1  385.06   20.78
   0   6   1  331.41   20.70
   0  -6   1  333.94   20.05
   0  -6   1  319.97   18.76
  -1  -6  -1   13.14    1.01
  -1   6  -1   15.21    1.00
   1  -6   1   12.22    0.92
   1  -6   1   14.42    0.98
  -1  -6  -1   12.83    0.84
   2   6   1   28.73    1.88
   2  -6   1   29.76    1.77
  -2  -6  -1   25.32    1.87
  -2   6  -1   29.02    1.88
   2  -6   1   26.80    1.78
  -2  -6  -1   28.85    1.88
  -3  -6  -1   24.14    1.65
  -3   6  -1   28.54    1.67
  -3  -6  -1   23.78    1.66
   3  -6   1   19.53    1.50
   3   6   1   23.95    1.65
   3  -6   1   23.84    1.57
  -4  -6  -1   43.30    3.03
  -4  -6  -1   48.05    2.96
  -4   6  -1   48.38    3.00
   4  -6   1   47.39    2.84
   4   6   1   43.71    3.02
  -4   6  -1   43.25    3.01
  -5  -6  -1    4.42    0.60
  -5   6  -1    3.84    0.61
   5  -6   1    3.79    0.57
  -5  -6  -1    4.62    0.59
   5   6   1    3.80    0.64
  -5   6  -1    3.92    0.56
  -6  -6  -1    2.39    0.52
  -6   6  -1    1.74    0.51
   6   6   1    1.34    0.56
  -6  -6  -1    3.30    0.55
   6  -6   1    1.87    0.48
  -6   6  -1    2.54    0.52
  -7   6  -1    0.94    0.41
  -7   6  -1    0.29    0.44
  -7  -6  -1    1.25    0.43
   7  -6   1    0.63    0.43
   7   6   1    0.32    0.46
  -8   6  -1    0.51    0.48
   8  -6   1    1.29    0.53
   8   6   1    0.60    0.60
  -8  -6  -1    0.58    0.54
  -9   6  -1    8.86    1.24
   9  -6   1   11.30    1.19
   9  -6   1   10.51    1.42
  -9   7   1    1.31    0.70
  -8   7   1    0.71    0.51
  -8  -7   1    0.32    0.59
  -8   7   1    0.25    0.44
   8   7  -1    0.65    0.59
   8  -7  -1   -0.38    0.39
   7   7  -1    1.67    0.59
   7  -7  -1    0.22    0.38
  -7   7   1    1.22    0.50
  -7   7   1    0.78    0.42
   6  -7  -1   29.59    2.10
  -6  -7   1   32.49    2.19
  -6   7   1   28.57    2.18
   6   7  -1   31.27    2.23
  -6  -7   1   30.01    2.22
  -6   7   1   30.80    2.18
  -5  -7   1    7.00    0.74
   5   7  -1    7.12    0.83
  -5  -7   1    7.31    0.82
  -5   7   1    7.55    0.85
   5  -7  -1    7.75    0.80
  -5   7   1    6.87    0.73
   4  -7  -1    4.77    0.59
  -4   7   1    4.74    0.56
   4   7  -1    5.13    0.64
  -4   7   1    5.08    0.60
  -4  -7   1    4.90    0.60
  -4  -7   1    4.12    0.62
  -3  -7   1    3.53    0.57
   3   7  -1    5.30    0.57
  -3  -7   1    4.21    0.52
   3  -7  -1    4.24    0.44
   3  -7  -1    3.95    0.51
  -2  -7   1   21.72    1.65
   2   7  -1   24.20    1.66
   2  -7  -1   24.48    1.59
  -2   7   1   23.12    1.62
  -2   7   1   23.98    1.63
   2  -7  -1   25.29    1.56
   2   7  -1   24.88    1.63
  -2  -7   1   23.12    1.39
   1  -7  -1   20.26    1.49
   1   7  -1   24.38    1.52
  -1  -7   1   20.90    1.53
  -1  -7   1   19.08    1.31
  -1   7   1   26.40    1.51
   1  -7  -1   20.78    1.40
   0  -7   1  126.15    7.39
   0   7  -1  135.19    8.19
   0  -7   1  136.83    7.95
   0  -7  -1  134.71    7.94
   0  -7  -1  130.80    7.39
   0   7   1  131.72    8.17
   0   7   1  119.02    8.13
   1  -7   1    9.32    0.79
   1   7   1    8.67    0.72
  -1  -7  -1    8.33    0.60
   1   7   1    9.77    0.75
  -1  -7  -1    9.89    0.78
   1  -7   1    8.81    0.71
   2  -7   1   48.04    2.93
  -2  -7  -1   48.51    3.02
   2  -7   1   46.41    2.82
   2   7   1   43.71    3.03
  -2   7  -1   47.18    3.05
  -3  -7  -1    8.08    0.78
   3   7   1    9.52    0.80
  -3   7  -1    9.70    0.77
   3  -7   1    6.78    0.66
  -3  -7  -1    9.63    0.78
   3  -7   1    7.66    0.75
  -3   7  -1    9.74    0.74
  -4  -7  -1   -0.12    0.20
  -4  -7  -1    0.30    0.28
  -4   7  -1   -0.19    0.21
   4   7   1   -0.12    0.31
   4  -7   1    0.03    0.25
  -4   7  -1   -0.05    0.27
   5  -7   1   21.04    1.52
  -5   7  -1   21.87    1.57
  -5   7  -1   20.77    1.54
  -5  -7  -1   20.95    1.57
  -5  -7  -1   21.40    1.57
   5   7   1   17.92    1.56
  -6   7  -1    0.29    0.34
  -6   7  -1    0.22    0.39
  -6  -7  -1    0.19    0.33
  -6  -7  -1    0.78    0.44
   6   7   1    0.70    0.49
   6  -7   1    0.03    0.35
   7  -7   1    1.92    0.58
  -7   7  -1    2.29    0.60
  -7  -7  -1    3.25    0.61
   7   7   1    2.35    0.67
  -7   7  -1    2.29    0.55
  -8   7  -1    4.54    0.79
   8  -7   1    2.83    0.66
  -8   7  -1    3.47    0.77
  -8  -7  -1    5.18    0.78
   8   7   1    4.04    0.82
  -8   8   1    1.60    0.55
  -8   8   1    1.41    0.59
   8   8  -1    1.38    0.66
   8  -8  -1    1.39    0.55
  -8  -8   1    2.19    0.68
  -7   8   1   11.59    1.11
   7   8  -1   11.74    1.30
  -7  -8   1    9.37    1.08
   7  -8  -1   11.51    1.16
  -7   8   1   13.63    1.14
   6  -8  -1    0.83    0.44
  -5   8   1    0.43    0.35
   5   8  -1    0.77    0.41
  -5  -8   1    0.62    0.32
  -5  -8   1    0.22    0.41
   5  -8  -1    0.24    0.33
  -5   8   1    0.74    0.33
  -4   8   1    4.47    0.59
   4  -8  -1    3.73    0.57
  -4  -8   1    3.71    0.56
   4   8  -1    4.91    0.63
  -4   8   1    5.76    0.57
  -4  -8   1    4.11    0.65
   3  -8  -1    2.12    0.36
   3  -8  -1    1.65    0.38
   2   8  -1    0.68    0.27
   2  -8  -1    0.29    0.23
  -2   8   1    0.56    0.23
  -2  -8   1    0.17    0.31
  -2   8   1    1.78    0.31
   2  -8  -1    0.44    0.22
   1   8  -1   14.87    1.14
  -1  -8   1   15.51    1.20
  -1  -8   1   15.07    0.98
   1  -8  -1   17.73    1.18
   1  -8  -1   14.76    1.06
   0  -8  -1   20.58    1.51
   0  -8  -1   19.02    1.33
   0  -8   1   20.37    1.35
   0   8   1   21.71    1.48
   0   8  -1   25.37    1.52
   0   8   1   22.94    1.49
   0  -8   1   20.00    1.53
   1  -8   1    4.70    0.51
  -1   8  -1    6.15    0.55
   1  -8   1    4.85    0.58
   2  -8   1    5.84    0.60
   2  -8   1    6.45    0.60
  -3  -8  -1    8.89    0.82
  -3  -8  -1    7.54    0.84
   3  -8   1   11.59    0.87
   3   8   1    9.64    0.85
  -4   8  -1   12.67    1.00
  -4  -8  -1   14.21    1.07
   4  -8   1    9.21    0.95
  -4   8  -1   11.10    0.95
  -5   8  -1   16.56    1.19
   5  -8   1   10.06    1.10
  -5  -8  -1   14.51    1.17
  -6  -8  -1    0.73    0.33
   6   8   1    0.85    0.49
  -6   8  -1    1.12    0.41
  -6  -8  -1    0.88    0.47
   6  -8   1    1.56    0.50
  -7  -8  -1    3.82    0.65
   7  -8   1    3.44    0.69
   7   8   1    3.43    0.76
  -7   8  -1    4.02    0.72
  -7   8  -1    2.90    0.62
  -8  -8  -1    3.01    0.62
   8  -8   1    3.43    0.70
   8   8   1    2.19    0.73
  -8   8  -1    1.95    0.63
  -8   8  -1    2.30    0.67
  -8   9   1    4.61    0.83
  -8  -9   1    1.97    0.74
  -8   9   1    3.51    0.73
   8   9  -1    1.41    0.72
   8  -9  -1    2.81    0.69
  -7  -9   1    4.86    0.70
   7   9  -1    6.28    0.91
  -7   9   1    3.69    0.67
  -7   9   1    2.76    0.67
   7  -9  -1    2.17    0.62
  -6  -9   1    3.08    0.57
   6   9  -1    4.06    0.74
  -6  -9   1    3.77    0.70
  -5  -9   1    3.31    0.54
   5  -9  -1    0.58    0.41
  -5  -9   1    2.61    0.61
   5   9  -1    4.23    0.63
  -5   9   1    1.42    0.48
  -5   9   1    1.44    0.41
  -4  -9   1    0.63    0.35
  -4   9   1    4.17    0.55
   3   9  -1   77.31    5.12
  -3   9   1   79.96    5.07
   3  -9  -1   87.34    4.73
  -3   9   1   78.27    5.08
   3   9  -1   70.21    5.04
  -3  -9   1   83.88    5.05
   2   9  -1   32.96    2.27
  -2   9   1   33.63    2.23
   2  -9  -1   33.82    2.11
  -2  -9   1   35.47    2.31
   2  -9  -1   32.68    2.19
  -2   9   1   31.07    2.22
  -1   9   1    1.44    0.32
  -1   9   1    2.19    0.36
   1  -9  -1    0.25    0.29
   1  -9  -1    0.34    0.24
   0  -9  -1   51.83    3.02
   0   9  -1   40.56    2.99
   0  -9  -1   45.75    2.71
   0  -9   1   46.88    3.00
   0  -9   1   45.17    2.72
   0   9   1   46.53    2.98
   0   9   1   45.36    3.00
   1   9   1    1.10    0.32
  -1  -9  -1    0.07    0.30
   1   9   1    1.74    0.33
   2   9   1   29.56    2.11
  -2  -9  -1   32.31    2.14
   2  -9   1   30.44    1.97
   2  -9   1   30.89    2.05
  -2   9  -1   30.92    2.10
   2   9   1   30.05    2.10
   3  -9   1    8.50    0.87
  -3  -9  -1    9.31    0.98
  -3   9  -1   10.67    0.89
   3   9   1   12.10    0.96
   4  -9   1    3.55    0.56
  -4   9  -1    2.88    0.52
   4   9   1    2.86    0.59
  -4  -9  -1    2.98    0.57
  -4  -9  -1    3.35    0.55
  -4   9  -1    3.02    0.53
  -5  -9  -1   29.23    2.23
  -5  -9  -1   34.12    2.29
  -5   9  -1   33.60    2.22
  -5   9  -1   31.02    2.22
   5  -9   1   32.59    2.17
   5   9   1   27.79    2.23
  -6   9  -1    0.95    0.48
  -6   9  -1    1.32    0.46
   6  -9   1    2.54    0.56
   6   9   1   -0.26    0.43
  -6  -9  -1    1.08    0.40
  -6  -9  -1    0.20    0.45
   7  -9   1   14.17    1.23
  -7  -9  -1   11.50    1.11
   7   9   1   12.33    1.27
  -7   9  -1   12.37    1.16
  -7   9  -1   11.77    1.18
   8   9   1   10.32    1.30
  -8   9  -1    7.77    1.11
  -8  -9  -1    9.80    1.11
   8  -9   1    9.70    1.12
   8  10  -1   10.22    1.28
  -8  10   1    8.25    1.17
  -7  10   1   18.70    1.48
   7  10  -1   15.27    1.51
   7 -10  -1   16.70    1.46
  -7 -10   1   15.74    1.39
  -7  10   1   17.04    1.45
  -6 -10   1    0.54    0.49
  -6  10   1    0.35    0.45
   6 -10  -1    0.22    0.37
  -6 -10   1    0.08    0.33
  -6  10   1    0.48    0.40
   6  10  -1   -0.13    0.50
  -5 -10   1   60.86    4.18
  -5  10   1   59.07    4.13
  -5 -10   1   70.36    4.17
   5 -10  -1   66.12    3.92
   5  10  -1   63.03    4.16
  -5  10   1   58.41    4.11
  -4  10   1   11.54    0.91
  -4 -10   1    8.39    1.00
   4  10  -1    8.11    0.90
   4 -10  -1   10.27    0.93
   4  10  -1    8.14    0.90
  -3  10   1   40.61    2.66
  -3  10   1   38.37    2.64
   3 -10  -1   43.54    2.55
   3  10  -1   37.16    2.69
   3  10  -1   38.36    2.66
  -3 -10   1   38.66    2.75
   2 -10  -1   14.90    1.09
  -2 -10   1    9.37    1.17
  -2  10   1   14.58    1.11
  -2  10   1   16.34    1.11
   1 -10  -1    3.08    0.44
   1 -10  -1    3.52    0.54
  -1  10   1    4.34    0.53
   1  10  -1    2.73    0.50
  -1 -10   1    2.18    0.60
  -1  10   1    5.58    0.51
   0  10   1   14.55    1.11
   0  10   1   13.89    1.09
   0 -10  -1   13.71    1.16
   0 -10  -1   15.03    1.01
   1  10   1   71.38    5.23
  -1  10  -1   82.26    5.32
  -1 -10  -1   89.45    5.24
   1 -10   1   94.91    5.23
   1 -10   1   85.54    4.84
   1  10   1   76.92    5.30
   2 -10   1    7.91    0.78
   2 -10   1    8.53    0.78
  -3 -10  -1  189.97   11.03
   3  10   1  182.32   11.37
   3 -10   1  191.40   10.35
   3  10   1  170.79   11.28
  -3  10  -1  167.06   11.31
  -4 -10  -1    0.80    0.47
  -4  10  -1    1.70    0.43
   4 -10   1    3.20    0.54
  -4  10  -1    1.51    0.43
   4  10   1    1.05    0.49
   5 -10   1    5.40    0.71
  -5 -10  -1    2.46    0.65
   5  10   1    3.78    0.72
  -5 -10  -1    2.90    0.58
  -5  10  -1    5.32    0.65
   6  10   1    0.91    0.60
  -6 -10  -1    2.68    0.51
   6 -10   1    1.82    0.55
  -6  10  -1    1.83    0.51
  -6 -10  -1    2.05    0.60
  -7 -10  -1    7.58    0.92
   7 -10   1    8.56    1.02
  -7  10  -1    6.93    0.94
   7  10   1    7.03    1.07
   8  10   1   -0.11    0.59
  -8  10  -1    0.81    0.61
  -7 -11   1    1.99    0.68
  -7  11   1    4.33    0.73
   7 -11  -1    2.45    0.65
   7  11  -1    2.62    0.78
  -7 -11   1    2.45    0.58
  -6 -11   1    1.36    0.57
  -6  11   1    3.74    0.64
  -6 -11   1    2.24    0.50
   6  11  -1    1.20    0.60
   6 -11  -1    2.84    0.61
  -5  11   1    3.81    0.59
  -5 -11   1    3.93    0.73
   5 -11  -1    2.80    0.59
   5  11  -1    3.68    0.73
   5  11  -1    5.14    0.72
  -5  11   1    3.54    0.65
  -4 -11   1    3.33    0.71
   3  11  -1    9.22    0.93
  -3 -11   1   10.63    1.11
  -2  11   1    3.80    0.56
   2 -11  -1    4.31    0.61
  -2 -11   1    5.83    0.80
   2 -11  -1    4.07    0.55
   1 -11  -1   13.42    1.15
   1 -11  -1   12.67    1.00
   0  11   1    2.01    0.40
   0 -11  -1    1.01    0.29
   0 -11   1    1.07    0.29
   0  11   1    1.89    0.41
   0 -11   1    0.72    0.43
   0 -11  -1    1.66    0.47
   0  11  -1    0.98    0.38
  -1 -11  -1    8.49    1.02
   1  11   1   13.42    1.00
   2  11   1    0.71    0.33
   2 -11   1    0.99    0.43
   2  11   1    0.72    0.38
  -2 -11  -1    0.29    0.42
  -3  11  -1    1.30    0.38
  -3 -11  -1   -0.13    0.41
   3 -11   1    0.87    0.38
  -4 -11  -1    4.83    0.77
   4  11   1    5.08    0.75
  -5 -11  -1    1.73    0.60
  -5 -11  -1    3.04    0.55
   5 -11   1    3.02    0.58
   5  11   1    2.43    0.66
  -5  11  -1    3.25    0.56
  -6  11  -1    1.97    0.53
  -6 -11  -1    0.68    0.50
   6  11   1    1.22    0.65
   6 -11   1    3.22    0.66
  -6 -11  -1    1.18    0.46
  -7 -11  -1    2.75    0.56
  -7  11  -1    1.59    0.65
   7  11   1    2.61    0.74
   7 -11   1    3.74    0.72
  -7 -12   1   -0.11    0.60
  -6  12   1    0.59    0.49
   6 -12  -1    0.48    0.47
   6  12  -1    1.16    0.61
  -6 -12   1   -0.60    0.51
   5 -12  -1    2.45    0.59
  -5  12   1    3.56    0.60
   5  12  -1    2.39    0.64
  -5 -12   1    2.87    0.67
  -4 -12   1    0.91    0.48
  -4  12   1    1.30    0.41
   4 -12  -1    1.01    0.43
   4  12  -1    0.42    0.40
  -3 -12   1   11.96    1.36
   3 -12  -1   17.44    1.31
  -3  12   1   17.33    1.33
   3  12  -1   18.11    1.37
   2 -12  -1   11.90    1.12
  -2 -12   1   11.81    1.19
   2 -12  -1   13.58    1.05
   2  12  -1   11.30    1.06
   1 -12  -1    5.34    0.76
   1 -12  -1    5.50    0.63
  -1 -12   1    5.54    0.84
   1  12  -1    6.44    0.72
   0  12   1    7.21    0.69
   0 -12   1    3.95    0.76
   0 -12  -1    4.64    0.71
   1 -12   1   14.24    1.34
   1  12   1   17.71    1.30
   1 -12   1   16.54    1.20
   1  12   1   18.14    1.33
  -1 -12  -1   13.64    1.35
  -1  12  -1   17.60    1.32
   2 -12   1    6.05    0.78
  -2 -12  -1    5.05    0.81
   3  12   1    4.30    0.73
   3 -12   1    4.82    0.68
  -4 -12  -1    0.65    0.44
  -4  12  -1   -0.07    0.29
   4 -12   1   -0.08    0.32
   4  12   1    0.27    0.40
   4  12   1   -0.07    0.48
  -5  12  -1    2.91    0.57
   5 -12   1    1.34    0.51
  -5 -12  -1    2.36    0.62
   5  12   1    1.15    0.54
   5  12   1    1.81    0.60
  -6  12  -1    8.03    1.05
   6 -12   1    9.58    1.10
   6  12   1    9.19    1.21
  -6 -12  -1   12.56    1.22
  -7 -12  -1    0.56    0.66
   7  12   1    0.18    0.65
  -7  12  -1    0.22    0.57
  -7 -13   1   -0.53    0.65
   6 -13  -1    2.99    0.72
   6  13  -1    1.45    0.76
  -6 -13   1    5.02    0.92
  -5 -13   1    0.36    0.52
   5 -13  -1    0.32    0.45
   5  13  -1    0.49    0.51
  -5  13   1    0.80    0.41
   4 -13  -1    5.50    0.77
  -4 -13   1    7.29    0.93
   4  13  -1    4.71    0.79
  -4  13   1    6.43    0.80
  -3  13   1    7.69    0.84
  -3 -13   1    8.59    1.03
   3 -13  -1    8.59    0.90
   3  13  -1    8.55    0.88
  -2  13   1    3.45    0.60
   2 -13  -1    2.63    0.50
   2 -13  -1    3.55    0.66
  -2 -13   1    2.77    0.68
   2  13  -1    4.17    0.65
   1 -13  -1    0.05    0.39
  -1 -13   1    0.25    0.43
  -1  13   1    0.54    0.35
   1  13  -1    0.27    0.34
   0 -13   1   16.95    1.46
   0 -13  -1   17.63    1.45
   0  13  -1   16.83    1.38
   0  13   1   17.62    1.37
  -1 -13  -1   -0.21    0.37
  -1  13  -1    0.51    0.35
   1 -13   1    0.18    0.36
   1 -13   1    0.54    0.30
   1  13   1    0.38    0.33
   2 -13   1   24.80    1.77
   2  13   1   20.32    1.71
  -2  13  -1   23.13    1.73
  -2 -13  -1   23.54    1.82
   2 -13   1   22.37    1.61
  -3 -13  -1    1.37    0.56
  -3  13  -1    3.02    0.56
   3  13   1    2.28    0.54
   3 -13   1    2.43    0.52
  -4  13  -1    1.90    0.49
   4  13   1    0.87    0.49
  -4 -13  -1    2.23    0.60
   4 -13   1    1.87    0.52
  -5  13  -1    4.26    0.73
  -5 -13  -1    5.38    0.86
   5 -13   1    4.16    0.76
   5  13   1    4.47    0.84
  -6  13  -1    1.20    0.57
  -6 -13  -1    0.86    0.61
   6 -13   1   -0.15    0.47
   6  13   1   -0.34    0.60
  -7 -13  -1    4.32    0.99
  -6 -14   1    1.35    0.73
   5  14  -1    2.51    0.72
   5 -14  -1    2.65    0.67
  -5 -14   1    1.59    0.70
   4  14  -1    1.53    0.57
   4 -14  -1    2.03    0.59
  -4  14   1    3.27    0.58
  -4 -14   1    2.11    0.69
   3  14  -1    7.17    0.87
  -3  14   1    6.32    0.82
  -3 -14   1    6.40    0.90
   3 -14  -1    4.88    0.72
  -2  14   1   10.20    1.03
   2 -14  -1   12.77    1.05
   2  14  -1   11.76    1.08
  -2 -14   1   11.43    1.18
   1  14  -1    1.43    0.47
   1 -14  -1    0.46    0.44
  -1 -14   1    0.71    0.49
  -1  14   1    1.15    0.41
   0 -14   1    3.62    0.69
   0  14  -1    2.85    0.57
   0 -14  -1    3.06    0.68
   0  14   1    4.19    0.64
  -1 -14  -1    7.44    0.94
   1 -14   1    8.57    0.93
  -1  14  -1    6.46    0.84
   1  14   1    7.16    0.87
   2 -14   1    1.14    0.41
  -2  14  -1    1.89    0.50
  -2 -14  -1    1.78    0.56
   2  14   1    1.18    0.51
  -3 -14  -1    0.21    0.40
  -3  14  -1    1.10    0.41
   3 -14   1    0.67    0.42
   3  14   1    0.29    0.37
  -4  14  -1    0.87    0.42
  -4 -14  -1   -0.08    0.49
   4 -14   1    0.59    0.44
   4  14   1    0.35    0.43
   5  14   1    0.96    0.59
  -5  14  -1    0.18    0.51
   5 -14   1   -0.06    0.48
  -5 -14  -1    0.02    0.53
  -6  14  -1    5.37    0.89
  -6 -14  -1    4.77    1.00
  -5 -15   1    0.70    0.66
   5 -15  -1    0.25    0.54
   5  15  -1   -0.20    0.57
  -4 -15   1    0.78    0.63
   4  15  -1    1.01    0.59
   4 -15  -1    2.00    0.58
  -3  15   1    2.61    0.57
   3  15  -1    2.22    0.64
  -3 -15   1    3.22    0.70
   3 -15  -1    2.03    0.54
   2  15  -1    4.09    0.69
  -2  15   1    3.91    0.69
  -2 -15   1    6.14    0.86
   1 -15  -1    2.18    0.60
   1  15  -1    1.79    0.50
  -1  15   1    1.86    0.51
  -1 -15   1    2.19    0.59
   0  15  -1    0.56    0.41
   0 -15   1    0.54    0.45
   0 -15  -1    0.01    0.43
   0  15   1    1.13    0.45
  -1 -15  -1    1.13    0.49
   1 -15   1   -0.24    0.46
  -1  15  -1    0.00    0.39
   1  15   1    0.73    0.39
  -2 -15  -1    1.57    0.58
  -2  15  -1    0.76    0.45
   2  15   1    1.01    0.49
  -3  15  -1    1.08    0.51
  -3 -15  -1    0.29    0.41
   3  15   1    0.41    0.52
   3 -15   1    0.47    0.38
  -4  15  -1    0.07    0.45
   4  15   1   -0.76    0.43
   4 -15   1    0.29    0.43
  -4 -15  -1    0.80    0.55
  -5  15  -1   -0.36    0.53
   5  15   1   -0.23    0.60
   5 -15   1    1.13    0.62
  -5 -15  -1    0.26    0.63
   4  16  -1    0.01    0.63
   4 -16  -1    0.62    0.54
   3  16  -1    0.57    0.58
  -3 -16   1    0.87    0.54
  -2 -16   1    4.79    0.85
   2  16  -1    4.47    0.81
  -2  16   1    4.89    0.78
   1 -16  -1    1.41    0.49
  -1  16   1    0.26    0.46
  -1 -16   1    1.26    0.52
   1  16  -1    1.64    0.57
   0 -16   1    4.44    0.84
   0  16   1    3.98    0.74
   0  16  -1    3.88    0.72
   0 -16  -1    4.45    0.77
  -1 -16  -1    1.02    0.51
   1 -16   1    0.71    0.47
   1  16   1    0.65    0.52
  -1  16  -1    0.95    0.50
  -2 -16  -1    1.11    0.50
  -2  16  -1    0.49    0.52
   2  16   1    0.85    0.55
  -3  16  -1    2.40    0.68
   3 -16   1    1.24    0.52
   3  16   1    1.53    0.67
  -3 -16  -1    1.90    0.58
   4 -16   1    3.13    0.71
  -4  16  -1    2.88    0.74
   4  16   1    1.55    0.73
  -5  16  -1    0.19    0.64
   3  17  -1    1.08    0.72
   2  17  -1    0.14    0.58
  -2 -17   1    0.73    0.59
   1 -17  -1    3.87    0.70
  -1 -17   1    3.59    0.77
   1  17  -1    1.29    0.66
  -1  17   1    2.26    0.68
   0  17   1    2.01    0.70
   0 -17   1    2.20    0.65
   0  17  -1    1.74    0.68
   0 -17  -1    2.56    0.67
   1 -17   1    1.17    0.52
  -1 -17  -1    1.34    0.55
   1  17   1    1.20    0.64
  -1  17  -1    1.80    0.63
   2  17   1    2.84    0.79
  -2 -17  -1    3.27    0.78
  -2  17  -1    1.89    0.73
  -3  17  -1    1.14    0.69
   3  17   1    1.49    0.75
   1  18  -1    2.83    0.88
   0  18  -1    2.73    0.84
   0 -18  -1    3.64    0.78
   0  18   1    3.23    0.83
   0 -18   1    3.48    0.77
   1  18   1    3.90    0.89
  -1  18  -1    3.26    0.88
  -2  18  -1    2.43    0.83
   9   0  -2    8.04    1.13
  -9   0   2    6.52    1.08
  -8   0   2   18.34    1.61
   8   0  -2   18.90    1.63
  -7   0   2    2.46    0.61
   7   0  -2    1.71    0.42
   7   0  -2    2.70    0.69
  -6   0   2   19.05    1.62
   6   0  -2   23.40    1.48
  -5   0   2   22.05    1.83
   5   0  -2   29.77    1.68
  -5   0   2   25.56    1.86
  -4   0   2  126.59    8.14
  -4   0   2  120.66    8.10
   4   0  -2  139.16    7.34
  -3   0   2   59.73    4.21
   3   0  -2   70.20    3.80
  -3   0   2   65.53    3.99
  -3   0   2   67.92    4.20
   2   0  -2 9999.69  523.74
  -2   0   2 8518.53  579.79
  -2   0   2 9658.87  577.98
  -1   0   2  225.56   13.37
  -1   0   2  220.44   13.84
  -1   0   2  214.81   13.89
  -1   0   2  230.43   12.55
   0   0   2   -1.28    0.07
   0   0  -2   -1.42    0.08
  -1   0  -2  774.44   49.80
   1   0   2  875.51   46.81
   1   0   2  936.59   51.59
  -1   0  -2  767.17   51.74
  -2   0  -2 1047.19   68.32
   2   0   2 1138.60   70.79
   2   0   2 1265.75   64.14
  -3   0  -2   22.65    1.75
   3   0   2   25.19    1.76
   3   0   2   28.31    1.57
  -3   0  -2   26.71    1.61
   4   0   2    3.02    0.37
  -4   0  -2    2.63    0.47
  -4   0  -2    3.10    0.31
   4   0   2    3.13    0.51
   5   0   2  111.29    7.83
  -5   0  -2  116.76    7.88
   5   0   2  142.60    7.10
  -6   0  -2   71.55    4.98
   6   0   2   81.43    4.46
   6   0   2   72.38    4.93
  -7   0  -2    3.56    0.71
   7   0   2    3.42    0.69
   8   0   2    1.96    0.62
  -8   0  -2    1.57    0.62
  -9   0  -2    2.26    0.78
   9   0   2    1.35    0.80
  -9  -1   2    0.90    0.67
  -9   1   2    0.48    0.65
   9  -1  -2    0.35    0.62
   9   1  -2    1.46    0.61
  -8  -1   2    7.69    1.03
  -8   1   2    8.01    1.06
   8   1  -2    9.05    1.13
   8  -1  -2    8.88    1.13
   7  -1  -2   12.94    1.06
   7   1  -2   12.64    1.24
  -7   1   2   13.01    1.21
  -7  -1   2   12.83    1.20
  -6   1   2   52.61    3.77
  -6   1   2   57.57    3.83
   6  -1  -2   59.74    3.44
   6   1  -2   59.65    3.40
  -6  -1   2   54.97    3.81
   6   1  -2   54.32    3.80
   5   1  -2   18.96    1.20
  -5   1   2   17.76    1.37
  -5  -1   2   18.60    1.38
   5  -1  -2   17.84    1.23
  -5   1   2   15.75    1.37
   4   1  -2   -0.03    0.14
  -4  -1   2   -0.35    0.27
  -4  -1   2    0.11    0.24
  -4   1   2   -0.17    0.20
  -4  -1   2   -0.16    0.14
  -4   1   2   -0.01    0.21
   4  -1  -2   -0.07    0.15
   3   1  -2   11.26    0.67
   3  -1  -2    7.69    0.66
  -3   1   2    8.12    0.74
  -3   1   2    9.78    0.77
  -3  -1   2   11.44    0.81
   3  -1  -2    9.09    0.60
  -3  -1   2    8.06    0.66
  -3  -1   2   10.61    0.76
  -2  -1   2  115.99    7.22
  -2  -1   2  142.50    7.53
   2  -1  -2  110.28    6.79
  -2   1   2  131.20    7.49
   2  -1  -2  112.99    7.18
  -2   1   2  108.32    7.50
  -2  -1   2  121.17    7.50
  -1  -1   2    1.07    0.16
  -1   1   2    1.08    0.18
  -1  -1   2    1.79    0.15
   1  -1  -2    1.00    0.14
  -1  -1   2    1.20    0.15
  -1  -1   2    1.19    0.18
  -1   1   2    0.86    0.14
   1  -1  -2    1.01    0.13
   0  -1  -2  749.79   44.19
   0  -1   2  718.37   41.54
   0  -1   2  773.51   44.20
   0   1   2  714.37   41.60
   0   1  -2  761.67   46.05
   1  -1   2    1.18    0.17
   1   1   2    1.06    0.18
  -1  -1  -2    1.02    0.16
  -1   1  -2    0.80    0.15
  -1   1  -2    0.74    0.11
   1  -1   2    0.85    0.14
   1   1   2    1.14    0.10
  -1  -1  -2    0.90    0.13
   2  -1   2   53.33    3.30
  -2  -1  -2   52.90    3.49
  -2  -1  -2   50.73    3.66
   2   1   2   64.03    3.28
  -2   1  -2   57.23    3.66
  -2   1  -2   60.63    3.46
   2   1   2   63.51    3.65
   3   1   2   36.98    2.07
  -3   1  -2   36.01    2.35
  -3  -1  -2   31.60    2.33
  -3  -1  -2   36.30    2.18
   3  -1   2   34.47    2.10
   3   1   2   35.52    2.32
   4  -1   2   79.46    4.65
  -4  -1  -2   74.67    5.17
  -4   1  -2   79.19    5.17
   4   1   2   85.16    4.61
   4   1   2   79.74    5.13
  -4  -1  -2   82.68    4.87
   5  -1   2    0.56    0.26
   5  -1   2    0.25    0.38
  -5   1  -2    0.18    0.33
   5   1   2    0.35    0.24
   5   1   2    0.36    0.36
  -5  -1  -2    0.59    0.38
  -6   1  -2   22.64    1.74
   6   1   2   20.80    1.71
   6   1   2   24.11    1.51
   6  -1   2   22.66    1.55
  -6  -1  -2   20.57    1.74
   6  -1   2   23.70    1.75
   7   1   2    0.71    0.46
   7  -1   2    0.86    0.48
   7  -1   2    0.40    0.36
  -7   1  -2    0.22    0.44
  -7  -1  -2    0.48    0.45
  -8  -1  -2   30.56    2.33
  -8   1  -2   31.31    2.34
   8   1   2   27.06    2.24
   8  -1   2   29.40    2.24
  -9  -1  -2    3.33    0.88
   9  -1   2    4.91    0.97
  -9   1  -2    4.45    0.93
   9   1   2    2.29    0.84
   9   2  -2    3.22    0.76
  -9  -2   2    2.61    0.77
   9  -2  -2    3.01    0.85
  -9   2   2    3.20    0.89
  -8   2   2    6.88    0.94
   8  -2  -2    4.07    0.68
   8   2  -2    5.96    0.91
  -8  -2   2    3.87    0.78
  -7  -2   2    9.45    1.00
   7  -2  -2    9.36    0.90
  -7   2   2   10.41    1.14
  -7   2   2    9.09    0.99
   7   2  -2   11.41    1.11
  -6  -2   2    5.80    0.78
  -6   2   2    7.18    0.82
   6   2  -2    6.98    0.88
   6  -2  -2    3.98    0.65
   6   2  -2    6.44    0.62
  -6   2   2    5.77    0.80
  -5   2   2    0.79    0.36
   5  -2  -2    1.10    0.30
  -5  -2   2    0.59    0.31
  -5  -2   2    0.32    0.23
   5   2  -2    0.81    0.44
   5   2  -2    0.56    0.22
  -5   2   2    0.65    0.32
  -4  -2   2    9.78    0.76
  -4  -2   2    6.74    0.63
   4   2  -2    9.95    0.62
   4  -2  -2    5.87    0.63
  -4   2   2    9.01    0.77
  -4   2   2    8.08    0.73
  -3  -2   2  137.20    7.43
  -3  -2   2  107.26    7.10
   3  -2  -2  109.34    6.71
  -3   2   2  107.25    7.40
   3   2  -2  125.50    6.66
  -3   2   2  121.27    7.38
   2  -2  -2   57.70    3.64
  -2   2   2   68.82    3.84
   2  -2  -2   58.34    3.49
  -2   2   2   57.21    3.82
  -2  -2   2   62.52    3.44
  -2  -2   2   59.64    3.70
  -1  -2   2  161.70    9.73
  -1  -2   2  179.80    9.10
   1  -2  -2  158.96    9.13
   1  -2  -2  149.83    9.69
   0   2  -2  159.23    9.33
   0  -2   2  160.84    9.00
   0  -2  -2  150.52    8.99
   0   2   2  138.52    9.31
   0  -2   2  143.93    8.43
   1  -2   2   71.65    4.15
  -1  -2  -2   72.51    4.58
  -1  -2  -2   72.08    4.41
   1  -2   2   72.60    4.39
  -1   2  -2   76.25    4.58
   2  -2   2   41.91    2.63
  -2  -2  -2   41.74    2.78
  -2   2  -2   45.26    2.89
   2   2   2   47.92    2.89
  -2   2  -2   49.88    2.91
   2   2   2   43.87    2.56
  -2  -2  -2   41.17    2.91
  -2   2  -2   49.18    2.73
  -3  -2  -2   85.77    5.62
   3   2   2   90.80    5.58
   3   2   2   93.79    5.00
  -3  -2  -2   81.51    5.35
  -3   2  -2   91.82    5.58
   3  -2   2   81.01    5.06
  -3   2  -2   93.95    5.62
   4  -2   2   26.98    1.86
  -4  -2  -2   28.59    2.07
   4   2   2   29.77    2.07
  -4   2  -2   30.12    2.07
  -4   2  -2   31.43    2.06
   4   2   2   30.64    1.80
  -4  -2  -2   31.45    1.92
   5   2   2   48.64    2.91
  -5  -2  -2   48.31    3.32
   5   2   2   49.13    3.30
  -5  -2  -2   52.39    3.08
   5  -2   2   44.17    2.96
  -5   2  -2   51.96    3.33
   6  -2   2    3.52    0.69
   6   2   2    4.76    0.76
  -6  -2  -2    5.59    0.77
   6  -2   2    4.73    0.62
  -6   2  -2    5.17    0.71
  -7   2  -2   16.57    1.40
   7   2   2   15.77    1.38
   7  -2   2   17.17    1.27
   7  -2   2   14.18    1.35
  -7  -2  -2   15.28    1.41
   8  -2   2    1.30    0.58
  -8  -2  -2    1.41    0.58
  -8   2  -2    0.34    0.50
   8   2   2    1.03    0.60
   9   2   2    0.11    0.63
  -9   2  -2    0.46    0.64
   9  -2   2    0.32    0.62
  -9  -2  -2    0.35    0.64
   9   3  -2   10.28    1.26
  -9  -3   2   10.05    1.26
   9  -3  -2   10.35    1.36
  -9   3   2    9.91    1.30
   8   3  -2    7.98    1.02
  -8   3   2    7.99    1.05
   8  -3  -2    6.27    0.83
  -8  -3   2    6.75    0.96
   7   3  -2    3.43    0.73
  -7  -3   2    3.57    0.65
  -7   3   2    3.17    0.63
   7  -3  -2    2.69    0.55
  -7   3   2    3.06    0.64
  -6   3   2   -0.27    0.32
   6   3  -2    0.61    0.49
  -6  -3   2    0.23    0.37
  -6   3   2    0.11    0.31
   6  -3  -2    0.21    0.31
   5   3  -2   29.01    1.70
   5   3  -2   30.20    2.00
  -5  -3   2   23.60    1.79
  -5   3   2   27.76    1.95
   5  -3  -2   24.74    1.78
  -5  -3   2   30.13    1.97
  -5   3   2   27.05    1.94
   4  -3  -2   33.64    2.20
   4   3  -2   37.02    2.42
   4   3  -2   38.02    2.11
  -4   3   2   36.98    2.39
  -4  -3   2   34.10    2.28
  -4   3   2   32.50    2.38
  -4  -3   2   37.61    2.41
  -3  -3   2  123.57    7.66
  -3   3   2  113.06    7.93
   3  -3  -2  125.21    7.23
  -3  -3   2  143.56    7.97
   3   3  -2  135.88    7.14
  -3   3   2  124.66    7.92
   3   3  -2  120.87    7.93
  -2  -3   2    5.20    0.36
  -2  -3   2    6.87    0.50
  -2   3   2    4.66    0.44
   2  -3  -2    5.18    0.45
  -2  -3   2    4.60    0.46
   2  -3  -2    4.90    0.38
  -2   3   2    6.76    0.51
   2   3  -2    4.60    0.46
   1  -3  -2    7.24    0.49
   1   3  -2    7.11    0.51
  -1   3   2    5.24    0.48
   1  -3  -2    5.88    0.48
  -1  -3   2    7.03    0.53
  -1  -3   2    7.08    0.44
  -1   3   2    7.88    0.53
   0  -3  -2  295.60   16.33
   0   3  -2  304.08   18.09
   0   3   2  322.51   18.03
   0  -3   2  276.85   16.34
   0  -3  -2  293.52   17.43
   0  -3   2  293.66   17.43
   0   3   2  260.52   18.06
   1  -3   2    0.12    0.11
  -1   3  -2    0.36    0.14
   1  -3   2    0.27    0.15
  -1  -3  -2    0.02    0.11
  -1  -3  -2    0.05    0.12
   1   3   2    0.15    0.19
  -2  -3  -2   -0.06    0.15
   2   3   2    0.07    0.19
  -2  -3  -2   -0.04    0.15
   2  -3   2   -0.06    0.14
   2  -3   2   -0.07    0.09
  -2   3  -2   -0.15    0.12
  -2   3  -2    0.16    0.16
  -3   3  -2  113.42    7.36
   3   3   2  114.91    6.61
   3   3   2  116.10    7.37
  -3  -3  -2  110.15    7.41
  -3  -3  -2  118.47    7.12
  -3   3  -2  134.22    7.42
   3  -3   2  116.70    6.72
  -4   3  -2   15.65    1.16
   4   3   2   13.95    1.16
  -4  -3  -2   14.99    1.17
  -4   3  -2   16.55    1.17
  -4  -3  -2   15.14    1.07
   4   3   2   13.84    0.95
   4  -3   2   15.86    1.09
  -5   3  -2   87.16    5.17
  -5   3  -2   76.57    5.11
   5  -3   2   74.51    4.66
  -5  -3  -2   82.04    4.88
  -5  -3  -2   81.93    5.19
   5   3   2   73.56    5.11
   6   3   2   15.07    1.36
  -6   3  -2   17.69    1.35
   6  -3   2   14.85    1.21
  -6  -3  -2   15.55    1.35
   7  -3   2    2.67    0.66
  -7   3  -2    2.53    0.58
  -7  -3  -2    1.48    0.56
   7  -3   2    3.78    0.60
   7   3   2    2.67    0.68
   8  -3   2   10.83    1.07
   8   3   2   11.81    1.24
   8  -3   2   11.57    1.20
  -8  -3  -2   12.48    1.25
  -8   3  -2   11.89    1.21
  -9  -3  -2    4.22    0.93
  -9   3  -2    5.94    1.03
   9   3   2    3.66    0.87
   9  -3   2    4.54    0.93
   9  -4  -2    4.11    0.75
   9   4  -2    4.97    0.92
  -9  -4   2    4.55    0.92
  -9   4   2    4.97    1.01
  -8   4   2    3.26    0.71
   8  -4  -2    3.04    0.61
  -8  -4   2    3.45    0.73
  -8   4   2    2.23    0.62
   8   4  -2    3.23    0.74
  -7   4   2   45.09    2.88
  -7   4   2   36.63    2.82
   7   4  -2   39.06    2.87
   7  -4  -2   38.86    2.64
  -7  -4   2   41.60    2.88
  -6   4   2   12.94    1.10
   6   4  -2   12.67    1.14
  -6   4   2   12.19    1.07
  -6  -4   2   12.38    1.10
   6  -4  -2   11.02    1.01
  -5   4   2    3.45    0.52
   5  -4  -2    2.03    0.42
   5   4  -2    3.76    0.57
  -5   4   2    3.70    0.57
  -5  -4   2    3.33    0.50
  -5  -4   2    2.01    0.45
  -4  -4   2    6.80    0.61
   4   4  -2    5.81    0.65
  -4   4   2    5.85    0.60
  -4  -4   2    5.66    0.58
   4  -4  -2    5.49    0.59
   4   4  -2    5.49    0.45
  -4   4   2    5.94    0.61
   3   4  -2   23.77    1.67
   3  -4  -2   24.70    1.52
  -3   4   2   24.62    1.65
  -3  -4   2   26.36    1.69
  -3   4   2   25.11    1.67
   3  -4  -2   24.11    1.57
  -3  -4   2   22.99    1.44
  -3  -4   2   25.03    1.64
  -2  -4   2   40.67    2.32
  -2  -4   2   35.21    2.25
   2   4  -2   30.48    2.26
  -2   4   2   38.09    2.31
   2  -4  -2   35.88    2.18
  -2   4   2   33.18    2.27
   2  -4  -2   35.33    2.12
  -2  -4   2   34.72    2.02
  -1  -4   2  186.39   10.16
   1  -4  -2  183.18   10.21
  -1  -4   2  182.31   10.89
  -1   4   2  185.75   11.24
  -1   4   2  169.83   11.24
   1  -4  -2  179.95   10.85
   1   4  -2  182.39   11.27
   0   4  -2    0.19    0.14
   0  -4   2   -0.06    0.11
   0  -4  -2   -0.04    0.09
   0   4   2    0.02    0.10
   0  -4   2   -0.01    0.14
   0   4   2   -0.20    0.12
   0  -4  -2   -0.01    0.13
  -1  -4  -2  359.44   24.39
   1   4   2  428.81   24.34
   1  -4   2  384.19   22.07
   1  -4   2  389.22   23.49
  -1   4  -2  424.24   24.41
  -1  -4  -2  380.18   23.51
   2  -4   2   13.28    0.89
  -2  -4  -2   13.17    0.98
  -2   4  -2   15.05    0.98
   2   4   2   14.04    1.00
  -2  -4  -2   13.32    0.96
   2  -4   2   12.41    0.92
  -3  -4  -2   29.71    2.22
  -3   4  -2   33.85    2.21
  -3  -4  -2   34.16    2.16
  -3   4  -2   37.42    2.25
   3   4   2   32.47    2.22
   3  -4   2   33.53    2.07
  -4  -4  -2    5.32    0.57
  -4  -4  -2    5.68    0.60
   4   4   2    6.77    0.71
  -4   4  -2    5.94    0.62
   4  -4   2    6.25    0.61
  -4   4  -2    6.77    0.63
   5  -4   2   54.02    3.12
  -5   4  -2   44.46    3.32
  -5  -4  -2   53.00    3.21
  -5  -4  -2   51.55    3.41
   5   4   2   46.42    3.36
  -5   4  -2   54.52    3.38
  -6   4  -2    1.85    0.47
   6   4   2    1.27    0.51
  -6   4  -2    1.38    0.47
   6  -4   2    1.63    0.45
  -6  -4  -2    1.56    0.46
   7  -4   2    0.27    0.41
  -7  -4  -2   -0.11    0.40
  -7   4  -2    1.36    0.47
   7   4   2    1.05    0.53
   8  -4   2    4.72    0.73
   8  -4   2    5.87    0.89
   8   4   2    4.75    0.86
  -8  -4  -2    4.73    0.86
  -8   4  -2    4.67    0.80
   9  -4   2    7.60    1.15
  -9   4  -2    6.35    1.10
  -9  -4  -2    7.87    1.16
   9   4   2    6.66    1.07
  -9   5   2    1.70    0.82
  -9  -5   2    3.21    0.86
   9   5  -2    0.82    0.69
   9  -5  -2    1.69    0.57
  -8  -5   2   -0.29    0.47
   8   5  -2   -0.70    0.50
  -8   5   2    0.04    0.38
  -8   5   2    0.24    0.45
   8  -5  -2    0.41    0.41
   7  -5  -2    7.31    0.92
  -7   5   2    9.84    1.06
  -7   5   2    9.78    0.97
  -7  -5   2    9.06    0.97
   7   5  -2    9.92    1.12
   6   5  -2    7.14    0.90
  -6   5   2    7.49    0.87
  -6  -5   2    7.93    0.88
   6  -5  -2    7.05    0.82
  -6   5   2    8.05    0.87
   5   5  -2    2.98    0.57
  -5   5   2    2.96    0.52
   5  -5  -2    2.24    0.44
  -5  -5   2    3.40    0.47
  -5   5   2    2.69    0.46
  -5  -5   2    3.13    0.51
  -4   5   2    4.12    0.51
   4   5  -2    3.14    0.50
  -4  -5   2    2.92    0.47
  -4   5   2    3.62    0.46
   4   5  -2    3.03    0.30
   4  -5  -2    3.23    0.45
  -4  -5   2    3.20    0.46
  -3   5   2    3.10    0.38
   3   5  -2    3.49    0.44
   3  -5  -2    3.02    0.30
  -3  -5   2    3.73    0.44
   3  -5  -2    3.25    0.41
  -3  -5   2    2.92    0.43
  -3  -5   2    2.58    0.26
  -3   5   2    3.63    0.45
   2  -5  -2    9.47    0.64
  -2  -5   2    8.75    0.70
   2  -5  -2    9.12    0.67
  -2   5   2    8.73    0.71
  -2  -5   2    8.53    0.72
  -2  -5   2    8.83    0.55
   2   5  -2    7.65    0.67
  -2   5   2    8.44    0.66
  -1  -5   2    8.21    0.72
  -1   5   2    9.86    0.70
   1  -5  -2    8.74    0.65
  -1  -5   2    8.94    0.59
   1   5  -2    9.45    0.70
   1  -5  -2    9.15    0.68
   0  -5   2   56.42    3.50
   0  -5  -2   60.21    3.24
   0  -5  -2   55.60    3.49
   0   5   2   58.23    3.58
   0  -5   2   52.37    3.24
   0   5   2   54.77    3.57
   0   5  -2   58.07    3.59
  -1  -5  -2   18.18    1.06
   1  -5   2   17.40    1.16
   1  -5   2   17.86    1.21
  -1  -5  -2   15.79    1.23
   1   5   2   18.27    1.25
  -1   5  -2   20.77    1.26
   2   5   2    3.57    0.43
  -2   5  -2    2.76    0.35
   2  -5   2    2.99    0.31
  -2  -5  -2    3.15    0.39
   2  -5   2    2.52    0.34
  -2  -5  -2    2.67    0.35
  -3   5  -2   -0.05    0.17
   3   5   2    0.19    0.24
  -3  -5  -2   -0.01    0.20
   3  -5   2    0.02    0.11
  -3  -5  -2    0.06    0.18
   3  -5   2   -0.11    0.20
  -3   5  -2   -0.06    0.19
  -4   5  -2   11.64    0.89
  -4  -5  -2    9.32    0.87
   4  -5   2   10.29    0.87
   4   5   2   10.48    0.92
  -4  -5  -2   11.04    0.88
  -4   5  -2   10.67    0.88
  -5  -5  -2    4.09    0.57
   5  -5   2    4.29    0.57
  -5  -5  -2    3.91    0.52
   5   5   2    3.66    0.63
  -5   5  -2    3.41    0.58
  -5   5  -2    4.57    0.59
   6  -5   2    1.77    0.47
  -6  -5  -2    1.68    0.46
  -6   5  -2    1.49    0.45
   6   5   2    1.36    0.54
  -6   5  -2    0.95    0.39
   7  -5   2   10.95    0.98
  -7   5  -2    9.81    1.06
  -7  -5  -2    8.48    0.94
   7   5   2    9.37    1.14
   8   5   2    1.78    0.65
  -8  -5  -2    1.04    0.51
   8  -5   2    1.43    0.66
   8  -5   2    2.33    0.61
  -8   5  -2    1.92    0.58
   9  -5   2    2.13    0.63
   9  -5   2    3.41    0.87
  -9   5  -2    1.98    0.79
  -9   6   2    0.29    0.72
  -9   6   2    0.68    0.59
   9   6  -2    0.90    0.67
   9  -6  -2   -0.13    0.39
  -8   6   2    0.49    0.49
  -8  -6   2    0.83    0.53
  -8   6   2   -0.21    0.41
   8   6  -2    0.56    0.54
   8  -6  -2   -0.48    0.31
   7  -6  -2    2.18    0.58
  -7   6   2    2.91    0.62
  -7  -6   2    2.71    0.62
  -7   6   2    3.61    0.65
   7   6  -2    3.68    0.73
  -6   6   2    8.55    0.90
   6  -6  -2    5.12    0.76
  -6  -6   2    6.39    0.78
  -6  -6   2    8.16    0.82
   6   6  -2    7.38    0.90
  -6   6   2    7.79    0.79
  -5  -6   2    0.56    0.36
   5   6  -2    0.62    0.38
  -5   6   2    0.35    0.28
  -5  -6   2    0.51    0.33
  -5   6   2    0.49    0.35
   5  -6  -2    0.20    0.29
   4   6  -2    2.95    0.47
  -4  -6   2    2.66    0.44
  -4   6   2    2.68    0.40
   4  -6  -2    2.66    0.42
  -4  -6   2    1.59    0.44
  -4   6   2    2.44    0.45
   3   6  -2   19.09    1.23
  -3   6   2   16.60    1.21
  -3  -6   2   16.16    1.01
  -3   6   2   16.95    1.24
   3  -6  -2   17.18    1.13
   3  -6  -2   17.90    1.20
  -3  -6   2   15.28    1.22
  -3  -6   2   17.99    1.28
   2   6  -2  121.24    7.00
  -2  -6   2  115.82    6.31
   2   6  -2  109.33    7.06
  -2   6   2  108.16    7.03
   2  -6  -2  111.24    6.78
  -2   6   2  104.73    7.02
  -2  -6   2  110.59    6.86
   2  -6  -2  115.11    6.44
  -1   6   2   14.22    1.06
  -1  -6   2   14.47    0.92
  -1   6   2   14.67    1.03
   1  -6  -2   14.82    1.04
   1   6  -2   15.56    1.06
   1  -6  -2   15.17    0.99
  -1  -6   2   14.53    1.09
   0  -6   2    0.04    0.16
   0  -6  -2    0.14    0.15
   0  -6  -2    0.23    0.21
  -1   6  -2  111.23    6.50
   1   6   2  103.37    6.47
  -1  -6  -2  101.92    6.29
  -1  -6  -2  102.81    5.80
   1  -6   2  105.82    6.27
   1  -6   2  101.87    5.89
   1   6   2   94.64    6.47
   2  -6   2   -0.06    0.18
   2  -6   2   -0.02    0.18
  -2   6  -2    0.64    0.21
  -2  -6  -2   -0.12    0.22
  -3   6  -2    8.20    0.62
   3  -6   2    6.82    0.66
   3  -6   2    5.58    0.52
   3   6   2    6.84    0.67
  -3   6  -2    8.00    0.65
  -3  -6  -2    6.39    0.64
  -3  -6  -2    6.56    0.63
  -4   6  -2    0.47    0.30
   4   6   2    0.32    0.31
   4  -6   2    0.15    0.29
  -4   6  -2    0.24    0.24
  -4  -6  -2    0.54    0.28
  -4  -6  -2    0.64    0.28
   5  -6   2    5.85    0.67
  -5   6  -2    4.80    0.62
  -5  -6  -2    4.17    0.60
   5   6   2    5.04    0.71
  -5   6  -2    4.46    0.62
  -5  -6  -2    4.34    0.58
  -6   6  -2    0.92    0.39
   6  -6   2    0.82    0.40
   6   6   2    0.59    0.49
  -6   6  -2    0.63    0.43
  -6  -6  -2    1.24    0.44
  -6  -6  -2    0.82    0.39
   7   6   2    2.19    0.64
  -7   6  -2    1.98    0.53
  -7   6  -2    2.07    0.56
   7  -6   2    2.64    0.58
  -7  -6  -2    2.14    0.53
  -8   6  -2   -0.37    0.43
   8   6   2    0.01    0.52
  -8  -6  -2    0.64    0.37
   8  -6   2    0.25    0.42
   9  -6   2    3.17    0.91
   9  -6   2    3.52    0.77
  -9   7   2    6.88    1.12
   8   7  -2    8.78    1.15
  -8   7   2    9.76    1.12
  -8  -7   2    7.67    1.11
   8  -7  -2    6.58    0.94
  -8   7   2    9.14    1.06
  -7   7   2    2.37    0.56
   7  -7  -2    1.14    0.45
  -7  -7   2    1.84    0.54
   7   7  -2    0.82    0.62
  -7   7   2    2.28    0.55
  -6   7   2    6.14    0.76
  -6  -7   2    6.07    0.80
  -6  -7   2    9.85    0.86
   6  -7  -2    5.80    0.78
  -6   7   2    5.33    0.80
  -5   7   2    0.18    0.27
   5  -7  -2    0.04    0.28
  -5  -7   2    0.04    0.35
   5   7  -2    0.11    0.38
  -5  -7   2    1.02    0.38
  -5   7   2   -0.24    0.25
  -4  -7   2    6.07    0.72
  -4  -7   2    6.37    0.67
  -4   7   2    6.24    0.71
   4   7  -2    6.83    0.68
  -4   7   2    6.00    0.61
   4  -7  -2    5.94    0.67
  -3  -7   2   38.75    2.72
   3  -7  -2   41.16    2.53
  -3  -7   2   41.21    2.70
  -3   7   2   40.75    2.69
  -3   7   2   40.05    2.70
   3  -7  -2   43.25    2.58
   3   7  -2   40.71    2.68
  -2   7   2   11.33    0.83
  -2  -7   2   10.00    0.91
   2   7  -2   11.98    0.89
   2  -7  -2   10.10    0.81
  -2  -7   2   10.88    0.68
   2  -7  -2   10.48    0.82
  -2   7   2   10.30    0.85
   1  -7  -2   82.56    4.97
   1  -7  -2   82.54    4.66
  -1   7   2   77.97    5.10
  -1  -7   2   80.42    4.59
   1   7  -2   81.57    5.13
  -1   7   2   76.65    5.10
  -1  -7   2   83.65    5.02
   0  -7  -2   12.83    0.91
   0  -7  -2   11.72    1.02
   0  -7   2   16.06    0.94
   0  -7   2   14.52    1.09
   1  -7   2    1.95    0.31
   1  -7   2    1.36    0.33
  -1   7  -2    2.35    0.34
  -1  -7  -2    1.70    0.21
  -1  -7  -2    1.94    0.35
   2  -7   2    5.35    0.53
  -2  -7  -2    5.21    0.56
  -2  -7  -2    5.93    0.60
   2   7   2    5.49    0.60
   2  -7   2    5.29    0.55
  -3   7  -2    9.82    0.79
   3   7   2   10.03    0.84
   3  -7   2    8.51    0.77
  -3  -7  -2    7.96    0.79
   3  -7   2    8.12    0.68
   4   7   2    5.90    0.68
   4  -7   2    5.04    0.63
  -4  -7  -2    4.12    0.59
  -4   7  -2    5.52    0.61
  -4   7  -2    5.42    0.62
  -4  -7  -2    4.50    0.60
  -5   7  -2   10.24    0.86
   5   7   2    8.39    0.95
   5  -7   2    7.68    0.87
  -5   7  -2    9.30    0.84
  -5  -7  -2    7.90    0.84
  -5  -7  -2    7.44    0.80
   6  -7   2   10.81    1.03
  -6  -7  -2   13.14    1.09
  -6  -7  -2   12.61    1.07
  -6   7  -2   10.16    1.05
  -6   7  -2   11.63    1.04
   6   7   2    9.85    1.09
   7  -7   2    2.21    0.57
   7   7   2    1.28    0.63
  -7   7  -2    2.59    0.56
  -7   7  -2    2.37    0.61
  -7  -7  -2    3.19    0.61
  -8  -7  -2    0.89    0.45
   8  -7   2    1.63    0.58
  -8   7  -2    1.17    0.57
   8   7   2    0.56    0.61
  -8   8   2    6.19    0.91
  -8   8   2    5.89    0.86
   8   8  -2    5.75    0.97
  -8  -8   2    5.98    0.96
   8  -8  -2    4.98    0.82
   7   8  -2   13.69    1.24
  -7   8   2   10.44    1.13
  -7  -8   2   12.20    1.16
   7  -8  -2   12.22    1.20
  -7   8   2   12.69    1.15
  -6  -8   2   25.15    1.82
   6  -8  -2   25.30    1.78
   6   8  -2   24.26    1.84
  -6   8   2   23.95    1.79
  -6   8   2   22.56    1.79
  -6  -8   2   22.45    1.79
   5   8  -2    1.04    0.44
  -5   8   2    0.55    0.37
  -5  -8   2    1.11    0.42
  -5  -8   2    0.72    0.45
  -5   8   2    0.99    0.37
   5  -8  -2    0.76    0.37
   4   8  -2   11.98    1.00
  -4  -8   2   11.44    1.03
  -4   8   2   10.23    0.94
   4  -8  -2   12.60    1.00
  -4  -8   2   11.19    0.97
  -4   8   2   12.98    1.00
   3  -8  -2   30.90    1.93
   3  -8  -2   28.01    1.91
  -3   8   2   28.75    2.01
  -3  -8   2   30.65    2.07
   3   8  -2   30.59    2.05
   3   8  -2   28.83    1.99
  -3   8   2   27.59    1.98
  -2  -8   2    7.05    0.74
  -2   8   2    7.46    0.66
   2  -8  -2    7.97    0.66
   2   8  -2    7.58    0.68
  -2  -8   2    7.03    0.50
  -2   8   2    6.85    0.63
   2  -8  -2    6.50    0.63
  -1  -8   2   40.92    2.25
  -1  -8   2   38.43    2.53
   1   8  -2   38.63    2.53
   1  -8  -2   38.71    2.33
  -1   8   2   35.94    2.51
  -1   8   2   36.76    2.51
   1  -8  -2   37.87    2.47
   0  -8  -2   18.45    1.33
   0  -8   2   17.84    1.19
   0   8  -2   21.19    1.34
   0  -8  -2   17.91    1.18
   0   8   2   17.67    1.30
   0   8   2   17.38    1.29
   0  -8   2   19.03    1.37
   1   8   2  120.28    7.79
   1  -8   2  131.81    7.58
  -1  -8  -2  128.02    7.60
  -1  -8  -2  127.47    7.01
  -1   8  -2  118.77    7.82
   1   8   2  116.62    7.80
   1  -8   2  126.29    7.10
   2  -8   2   78.32    4.46
   2   8   2   75.01    4.86
  -2  -8  -2   75.31    4.75
   2   8   2   71.71    4.83
  -2   8  -2   73.42    4.86
   2  -8   2   80.92    4.68
  -3  -8  -2    7.31    0.73
  -3  -8  -2    8.16    0.81
   3  -8   2    8.38    0.77
   3  -8   2    7.94    0.70
  -3   8  -2    9.10    0.76
   3   8   2    8.32    0.80
  -4   8  -2   39.92    2.76
   4   8   2   37.11    2.74
  -4   8  -2   39.87    2.71
  -4  -8  -2   45.88    2.76
   4  -8   2   44.41    2.63
  -4  -8  -2   39.09    2.76
  -5  -8  -2   59.61    4.45
  -5   8  -2   70.03    4.44
  -5  -8  -2   72.82    4.39
   5   8   2   64.26    4.45
  -5   8  -2   66.82    4.46
   5  -8   2   76.20    4.20
   6   8   2    4.60    0.78
  -6  -8  -2    4.31    0.65
  -6  -8  -2    3.95    0.68
  -6   8  -2    4.64    0.68
   6  -8   2    2.97    0.64
  -6   8  -2    4.35    0.71
   7  -8   2   11.69    1.13
  -7   8  -2    9.65    1.02
  -7   8  -2    9.23    0.98
  -7  -8  -2    8.79    0.95
   7   8   2   10.74    1.12
   8   8   2    1.90    0.65
  -8  -8  -2    1.92    0.55
   8  -8   2    2.06    0.59
  -8   8  -2    2.06    0.66
  -8   9   2    6.82    0.95
   8  -9  -2    5.72    0.89
   8   9  -2    5.10    1.01
  -8  -9   2    7.45    1.05
  -7   9   2    1.63    0.58
   7  -9  -2    0.58    0.45
  -7  -9   2    1.31    0.53
  -7   9   2    2.59    0.56
   7   9  -2    1.69    0.68
  -6  -9   2    0.28    0.37
  -6   9   2    0.29    0.38
   6   9  -2    0.31    0.49
   6  -9  -2   -0.55    0.28
  -6  -9   2   -0.55    0.40
  -6   9   2    0.19    0.36
  -5  -9   2    0.39    0.47
   5  -9  -2    1.08    0.41
  -5  -9   2    0.98    0.39
   5   9  -2    1.26    0.46
  -4   9   2   18.84    1.39
  -4  -9   2   19.05    1.48
   4   9  -2   17.75    1.40
  -4   9   2   17.15    1.39
   4  -9  -2   20.34    1.42
   3  -9  -2   30.20    2.06
  -3   9   2   29.95    2.16
  -3   9   2   36.42    2.18
   3  -9  -2   29.58    2.07
  -2   9   2   11.89    0.95
  -2   9   2   12.29    0.94
  -2  -9   2   10.83    1.04
   1  -9  -2    5.11    0.55
  -1   9   2    6.76    0.59
  -1  -9   2    5.75    0.70
  -1  -9   2    5.02    0.47
   1   9  -2    5.99    0.64
   1  -9  -2    5.85    0.64
  -1   9   2    6.59    0.61
   0  -9   2   28.84    1.72
   0   9   2   22.08    1.60
   0   9   2   21.88    1.60
   0  -9  -2   18.24    1.60
   0   9  -2   26.86    1.65
   0  -9   2   27.16    1.49
   0  -9  -2   19.16    1.44
   1  -9   2    6.64    0.68
   1  -9   2    5.40    0.58
  -1   9  -2    6.26    0.62
   2   9   2   16.16    1.23
   2  -9   2   17.71    1.20
  -2  -9  -2   12.33    1.23
   2  -9   2   16.47    1.21
   2   9   2   17.27    1.25
  -2   9  -2   16.22    1.23
   3  -9   2   17.40    1.29
  -4  -9  -2    0.41    0.31
  -4   9  -2    0.95    0.37
   4  -9   2    0.67    0.36
  -4  -9  -2    0.66    0.38
   4   9   2    0.42    0.41
  -5  -9  -2   11.75    1.14
  -5  -9  -2   10.65    1.06
   5   9   2   11.65    1.14
  -5   9  -2   13.89    1.10
   5  -9   2   15.05    1.17
  -6   9  -2    3.06    0.60
  -6  -9  -2    4.32    0.72
   6  -9   2    2.16    0.58
  -6  -9  -2    2.13    0.50
   6   9   2    2.53    0.66
   7   9   2    1.04    0.59
   7  -9   2    1.34    0.52
  -7  -9  -2    0.85    0.39
  -7   9  -2    0.41    0.39
  -8  -9  -2    3.54    0.67
  -8   9  -2    2.07    0.68
   8  -9   2    2.92    0.71
   8   9   2    2.75    0.81
  -8  10   2   -0.16    0.47
   8  10  -2    1.13    0.67
  -7  10   2    9.60    0.99
  -7  10   2    7.48    0.99
   7  10  -2    8.42    1.12
  -7 -10   2    7.89    1.02
   6  10  -2    0.60    0.54
  -6 -10   2    0.28    0.38
  -6 -10   2    0.78    0.48
  -6  10   2    1.81    0.57
  -6  10   2    1.44    0.48
   6 -10  -2    0.91    0.43
  -5 -10   2   20.18    1.70
   5  10  -2   21.50    1.60
  -5 -10   2   19.09    1.56
   4  10  -2   17.29    1.45
  -4  10   2   20.57    1.47
  -4 -10   2   20.15    1.58
  -4  10   2   17.65    1.44
   4 -10  -2   20.30    1.46
   4  10  -2   18.77    1.50
   3 -10  -2   20.87    1.69
   3  10  -2   22.70    1.81
  -3  10   2   26.55    1.79
  -3  10   2   28.83    1.80
  -3 -10   2   24.43    1.91
   2 -10  -2   29.23    1.96
  -2  10   2   27.93    2.07
   2  10  -2   29.15    2.11
  -2  10   2   30.20    2.08
   2 -10  -2   32.15    2.07
  -2 -10   2   34.14    2.20
   1 -10  -2   14.24    0.96
   1 -10  -2   16.47    1.12
  -1 -10   2   11.27    0.84
   1  10  -2   11.60    1.02
  -1 -10   2    9.86    1.07
   0  10   2    0.39    0.28
   0  10   2    1.15    0.30
   0 -10   2    3.13    0.53
   0  10  -2    1.12    0.29
   0 -10  -2   -0.05    0.20
   0 -10  -2   -0.12    0.26
   2  10   2   49.32    3.33
  -2  10  -2   49.06    3.33
   2  10   2   55.17    3.34
   2 -10   2   49.40    3.07
   2 -10   2   48.32    3.22
  -2 -10  -2   49.17    3.32
  -3 -10  -2    7.96    0.90
   4 -10   2    0.75    0.38
  -4  10  -2    0.19    0.33
  -4 -10  -2    0.31    0.37
  -4 -10  -2    0.53    0.33
   4  10   2    0.69    0.44
   5 -10   2    0.35    0.40
  -5  10  -2    0.95    0.37
  -5 -10  -2    0.77    0.47
  -5 -10  -2    1.18    0.39
  -6  10  -2   10.81    1.03
   6 -10   2   10.78    1.11
  -6 -10  -2    8.71    1.03
   6  10   2   10.51    1.13
  -6 -10  -2   11.20    1.12
  -7  10  -2    5.53    0.85
   7 -10   2    6.96    0.91
   7  10   2    6.58    1.01
  -7 -10  -2    5.31    0.77
  -8  10  -2    0.88    0.59
   7 -11  -2    2.33    0.66
  -7 -11   2    1.94    0.67
  -7 -11   2    3.01    0.61
  -7  11   2    2.25    0.62
  -6  11   2   10.70    1.10
  -6 -11   2   10.88    1.19
  -6  11   2   12.71    1.12
   6 -11  -2   10.27    1.13
   5 -11  -2   -0.08    0.31
  -5  11   2    0.08    0.33
  -5 -11   2   -0.25    0.43
   5  11  -2    1.41    0.49
  -5  11   2    0.62    0.34
   4 -11  -2    6.03    0.74
  -4  11   2    6.24    0.78
   4  11  -2    5.80    0.81
  -4 -11   2    5.64    0.86
  -4  11   2    5.99    0.73
   3  11  -2   73.15    4.96
   3 -11  -2   82.56    4.59
  -3 -11   2   84.33    4.94
  -3  11   2   72.81    4.90
  -3  11   2   69.09    4.88
  -2  11   2    4.50    0.61
   2 -11  -2    4.49    0.61
  -2 -11   2    3.73    0.71
  -2  11   2    4.20    0.60
   2  11  -2    6.19    0.68
   2 -11  -2    4.55    0.57
   1 -11  -2   22.11    1.53
   1 -11  -2   21.30    1.67
  -1  11   2   22.65    1.62
  -1  11   2   25.77    1.67
   1  11  -2   23.18    1.66
  -1 -11   2   20.34    1.75
   0 -11  -2    9.26    0.92
   0 -11   2    9.39    0.77
   0 -11   2   11.51    0.97
   0  11  -2    8.98    0.86
   0  11   2    9.40    0.86
   0  11   2   10.09    0.88
   1 -11   2   14.24    1.16
  -1 -11  -2   16.40    1.36
   1  11   2   19.11    1.32
   1 -11   2   15.44    1.36
  -1  11  -2   18.08    1.31
   1  11   2   15.84    1.28
   2  11   2   12.31    1.04
   2 -11   2   10.66    0.94
   2 -11   2   10.16    0.98
  -2 -11  -2    9.60    1.04
  -2  11  -2   12.03    1.01
   2  11   2   11.89    0.99
  -3  11  -2   23.08    1.59
   3  11   2   22.29    1.59
   3  11   2   18.71    1.54
   3 -11   2   18.29    1.48
  -3 -11  -2   19.04    1.60
  -4 -11  -2    0.68    0.43
   4 -11   2    1.00    0.42
   4  11   2   -0.29    0.41
  -4  11  -2    0.59    0.36
   4  11   2    0.61    0.43
   5  11   2    0.10    0.50
  -5 -11  -2    0.83    0.41
  -5  11  -2    0.35    0.34
   5 -11   2    0.05    0.37
  -5 -11  -2    0.38    0.42
   6  11   2    8.49    1.13
  -6 -11  -2    7.53    0.91
  -6  11  -2    6.73    0.92
  -6 -11  -2    9.95    1.08
   6 -11   2    7.50    0.97
   7  11   2    0.03    0.61
  -7  11  -2    0.39    0.52
   7 -11   2    0.32    0.48
  -7 -11  -2    0.76    0.41
  -7 -12   2    1.83    0.70
   6  12  -2    0.32    0.57
  -6 -12   2   -0.13    0.49
   6 -12  -2    0.06    0.43
  -5  12   2    3.95    0.64
  -5 -12   2    3.90    0.77
   5 -12  -2    3.01    0.63
   5  12  -2    4.94    0.78
   4  12  -2    9.57    1.01
   4 -12  -2   10.77    1.02
  -4 -12   2   10.83    1.17
  -4  12   2   11.58    1.02
  -4  12   2   10.87    0.99
   3  12  -2    5.79    0.74
  -3 -12   2    4.28    0.81
   3 -12  -2    4.79    0.68
   2 -12  -2   29.07    1.84
  -2  12   2   23.59    1.88
  -2 -12   2   23.02    1.97
   2 -12  -2   30.34    1.95
  -2  12   2   24.32    1.87
   2  12  -2   30.40    1.99
  -1  12   2   16.61    1.26
  -1  12   2   16.82    1.31
   1 -12  -2   16.47    1.21
   1 -12  -2   16.97    1.35
  -1 -12   2   16.18    1.40
   1  12  -2   16.30    1.32
   0 -12   2    1.52    0.57
   0 -12  -2    2.22    0.55
   0 -12   2    1.74    0.37
   0  12  -2    2.30    0.49
   1  12   2   18.46    1.39
   1 -12   2   17.17    1.26
   1 -12   2   15.49    1.44
  -1  12  -2   19.22    1.41
  -1 -12  -2   17.30    1.44
   1  12   2   17.60    1.38
  -2 -12  -2   56.42    3.74
   2 -12   2   60.44    3.68
   2  12   2   55.24    3.76
   2 -12   2   56.64    3.46
   2  12   2   52.77    3.72
  -2  12  -2   57.08    3.77
  -3  12  -2    1.14    0.40
   3 -12   2    0.37    0.37
  -3 -12  -2    0.21    0.38
   3  12   2    0.44    0.37
   3  12   2    0.45    0.42
   4  12   2    0.68    0.42
   4 -12   2    0.95    0.44
  -4 -12  -2    0.81    0.46
  -4  12  -2    1.40    0.42
   4  12   2    0.58    0.51
   5  12   2    2.19    0.60
   5 -12   2    2.34    0.60
  -5  12  -2    1.81    0.49
  -5 -12  -2    2.36    0.60
   5  12   2    2.49    0.65
   6  12   2    2.34    0.67
  -6 -12  -2    3.31    0.60
   6 -12   2    2.49    0.69
  -6  12  -2    2.75    0.65
  -6 -12  -2    2.53    0.73
   7  12   2    4.28    0.96
  -7 -12  -2    4.73    0.92
  -7  12  -2    2.65    0.77
  -7 -13   2    0.97    0.70
   6  13  -2    0.74    0.64
  -6 -13   2    0.73    0.62
   6 -13  -2    0.85    0.53
  -5 -13   2    1.45    0.60
   5 -13  -2    1.86    0.59
   5  13  -2    1.23    0.58
   4  13  -2    1.62    0.50
   4 -13  -2    0.75    0.42
  -4  13   2    2.12    0.49
  -4 -13   2    0.33    0.52
   3  13  -2    3.14    0.57
  -3 -13   2    1.24    0.59
  -3  13   2    2.35    0.51
   3 -13  -2    3.34    0.56
   2  13  -2    0.53    0.40
   2 -13  -2    0.02    0.45
  -2  13   2    1.00    0.38
   2 -13  -2    0.51    0.36
  -2 -13   2    0.30    0.46
   1 -13  -2    7.31    0.83
  -1 -13   2    6.31    0.88
   1  13  -2    6.69    0.85
  -1  13   2    7.30    0.82
   0 -13   2    2.74    0.67
   1 -13   2    5.21    0.74
   1 -13   2    4.35    0.56
   1  13   2    5.81    0.71
   1  13   2    4.94    0.68
  -1 -13  -2    3.92    0.71
  -1  13  -2    4.68    0.67
  -2 -13  -2    1.22    0.45
   2 -13   2   -0.04    0.30
   2  13   2    0.06    0.28
   2  13   2    0.87    0.36
  -2  13  -2    1.21    0.41
   2 -13   2   -1.17    0.38
  -3 -13  -2    0.10    0.45
   3  13   2    0.97    0.47
  -3  13  -2    0.96    0.38
   3  13   2    1.21    0.44
   3 -13   2    1.22    0.40
   4  13   2    1.47    0.59
  -4  13  -2    1.84    0.49
   4  13   2    1.17    0.51
   4 -13   2    1.65    0.50
  -4 -13  -2    1.74    0.56
  -5  13  -2    0.55    0.42
   5  13   2    1.28    0.60
   5 -13   2    0.66    0.47
   5  13   2    0.96    0.56
  -5 -13  -2    1.44    0.59
   6  13   2    1.95    0.66
  -6 -13  -2    0.81    0.64
   6 -13   2    1.27    0.61
  -6  13  -2    1.34    0.59
   6  13   2   -0.03    0.62
  -6 -14   2    1.07    0.70
  -5 -14   2    0.52    0.62
   5  14  -2    0.73    0.58
   5 -14  -2    1.38    0.56
   4 -14  -2    5.81    0.80
  -4 -14   2    6.13    0.97
   4  14  -2    5.23    0.85
  -3  14   2    0.36    0.37
   3 -14  -2    2.00    0.47
  -3 -14   2    1.33    0.53
   3  14  -2    1.36    0.52
  -2 -14   2   -0.04    0.45
   2 -14  -2    1.57    0.42
   2  14  -2    1.40    0.49
  -2  14   2    0.31    0.37
   1  14  -2    0.91    0.43
  -1  14   2    1.09    0.40
  -1 -14   2    0.38    0.46
   1 -14  -2    1.21    0.50
   0 -14  -2    1.99    0.56
   0  14  -2    1.18    0.43
   0 -14   2    1.09    0.54
   0  14   2    0.96    0.42
   1  14   2    5.25    0.76
   1 -14   2    6.84    0.89
  -1  14  -2    7.88    0.89
  -1 -14  -2    6.97    0.88
  -2 -14  -2    1.51    0.53
   2 -14   2    0.89    0.37
  -2  14  -2    1.07    0.46
   2  14   2    1.22    0.46
  -3  14  -2    0.28    0.37
   3 -14   2   -0.10    0.34
  -3 -14  -2   -0.10    0.38
   3  14   2    0.09    0.34
  -4  14  -2    3.13    0.64
  -4 -14  -2    2.78    0.74
   4  14   2    2.74    0.67
   4 -14   2    3.12    0.65
   5 -14   2    0.07    0.48
   5  14   2    0.86    0.63
  -5  14  -2    0.43    0.51
  -5 -14  -2    1.35    0.62
  -6  14  -2    1.48    0.70
  -6 -14  -2    1.77    0.77
  -5 -15   2    1.14    0.70
   5  15  -2    2.32    0.70
   5 -15  -2    1.51    0.64
  -4 -15   2    1.05    0.64
   4 -15  -2    0.93    0.54
   4  15  -2    0.40    0.55
   3 -15  -2    3.22    0.60
   3  15  -2    4.73    0.82
  -3 -15   2    3.26    0.75
  -2  15   2    0.37    0.42
   2  15  -2    1.28    0.51
  -2 -15   2    0.56    0.51
   1  15  -2    2.82    0.60
   1 -15  -2    2.86    0.64
  -1 -15   2    1.89    0.63
  -1  15   2    1.09    0.49
   0 -15   2    2.51    0.61
   0 -15  -2    1.99    0.59
   0  15  -2    3.09    0.63
   0  15   2    3.07    0.59
  -1 -15  -2    0.33    0.42
   1  15   2    0.35    0.39
   1 -15   2   -0.09    0.45
  -1  15  -2   -0.01    0.36
  -2 -15  -2    1.41    0.56
   2 -15   2    1.36    0.44
   2  15   2    1.31    0.51
  -2  15  -2    0.92    0.49
  -3  15  -2    2.91    0.63
   3  15   2    3.19    0.69
   3 -15   2    2.36    0.57
  -3 -15  -2    3.21    0.69
   4 -15   2    0.87    0.47
  -4  15  -2    0.42    0.52
   4  15   2    0.77    0.56
  -4 -15  -2    1.29    0.63
  -5  15  -2    0.85    0.58
   5  15   2    0.37    0.61
   5 -15   2    0.50    0.53
  -5 -15  -2    0.95    0.66
   4 -16  -2    0.35    0.55
   4  16  -2    0.07    0.62
  -3 -16   2    2.05    0.64
   3  16  -2    1.60    0.69
   2  16  -2    5.05    0.86
  -2 -16   2    5.14    0.88
   1 -16  -2    1.59    0.56
   1  16  -2    0.71    0.53
  -1 -16   2    1.48    0.53
  -1  16   2    0.74    0.48
   0  16   2    2.61    0.59
   0  16  -2    2.17    0.61
   0 -16  -2    2.24    0.62
   0 -16   2    1.76    0.66
   1 -16   2    4.89    0.78
   1  16   2    3.27    0.71
  -1 -16  -2    5.50    0.85
  -1  16  -2    4.25    0.78
  -2 -16  -2    4.48    0.80
  -2  16  -2    3.09    0.71
   2  16   2    3.25    0.71
   3 -16   2    0.30    0.43
  -3  16  -2    0.41    0.53
   3  16   2    1.13    0.63
  -3 -16  -2    0.63    0.50
   4  16   2    0.44    0.60
   4 -16   2    0.31    0.49
  -4  16  -2    0.29    0.53
  -2 -17   2   -0.03    0.47
   2  17  -2    0.20    0.58
  -1 -17   2    1.60    0.58
   1  17  -2    1.31    0.64
   1 -17  -2    1.94    0.61
   0  17  -2    0.11    0.57
   0 -17  -2    1.85    0.61
   0  17   2    1.17    0.60
   0 -17   2    0.92    0.54
  -1  17  -2    1.49    0.65
  -1 -17  -2    0.91    0.55
   1  17   2    1.55    0.65
   2  17   2   -0.13    0.56
  -2 -17  -2   -0.01    0.47
  -2  17  -2   -0.30    0.51
  -3  17  -2   -0.37    0.59
   3  17   2    0.68    0.72
   0 -18  -2    2.53    0.68
   0 -18   2    2.66    0.73
   0  18  -2    1.91    0.77
  -1  18  -2    0.88    0.73
   2  18   2    1.47    0.74
  -9   0   3    0.21    0.58
   9   0  -3    0.39    0.55
  -8   0   3   -0.11    0.44
   8   0  -3    0.74    0.58
  -7   0   3   -0.34    0.37
   7   0  -3   -0.40    0.25
  -6   0   3    0.30    0.37
  -6   0   3    0.32    0.46
   6   0  -3   -0.08    0.26
  -5   0   3   -0.13    0.24
   5   0  -3    0.05    0.19
  -5   0   3   -0.01    0.34
  -4   0   3    0.20    0.24
  -4   0   3   -0.05    0.15
  -4   0   3   -0.19    0.32
   4   0  -3   -0.16    0.15
  -3   0   3   -0.01    0.16
  -3   0   3   -0.03    0.22
  -3   0   3   -0.19    0.12
   3   0  -3    0.02    0.12
  -2   0   3   -0.66    0.22
  -2   0   3   -0.91    0.13
  -2   0   3   -1.02    0.17
  -2   0   3   -1.07    0.16
  -1   0   3    0.17    0.07
   1   0  -3   -0.04    0.07
  -1   0   3   -0.07    0.06
  -1   0   3   -0.07    0.10
   0   0   3    0.06    0.07
   0   0  -3   -0.02    0.05
   0   0   3   -0.03    0.05
   0   0  -3    0.02    0.07
  -1   0  -3    0.00    0.09
  -1   0  -3   -0.24    0.09
   1   0   3   -0.25    0.12
   1   0   3   -0.24    0.08
  -2   0  -3   -0.06    0.15
   2   0   3   -0.12    0.13
  -2   0  -3   -0.05    0.09
   2   0   3   -0.21    0.18
  -3   0  -3    0.01    0.12
   3   0   3   -0.01    0.22
   3   0   3   -0.17    0.14
  -3   0  -3    0.07    0.20
  -4   0  -3    0.06    0.12
   4   0   3    0.15    0.26
  -4   0  -3   -0.16    0.19
   4   0   3    0.24    0.19
   5   0   3   -0.11    0.25
   5   0   3    0.21    0.34
  -5   0  -3   -0.09    0.29
   6   0   3   -0.22    0.37
   6   0   3   -0.33    0.28
  -6   0  -3    0.36    0.35
  -7   0  -3   -0.68    0.36
   7   0   3   -0.05    0.39
  -8   0  -3   -0.38    0.43
   8   0   3   -0.01    0.45
   9   0   3   -0.22    0.66
  -9   0  -3   -0.41    0.58
  -9   1   3    0.72    0.63
   9  -1  -3    0.78    0.65
   9   1  -3    0.50    0.54
  -9  -1   3    0.71    0.65
  -8   1   3   40.06    2.88
  -8  -1   3   37.56    2.85
   8  -1  -3   39.46    2.58
   8   1  -3   39.69    2.88
  -7   1   3   12.52    1.20
   7   1  -3   14.24    1.30
   7  -1  -3   12.89    1.07
  -7  -1   3   13.53    1.21
  -7   1   3   13.05    1.22
  -6   1   3    2.45    0.57
  -6   1   3    2.87    0.60
  -6  -1   3    1.92    0.52
   6   1  -3    3.29    0.46
   6  -1  -3    1.46    0.40
  -5  -1   3   22.92    1.76
  -5   1   3   21.93    1.74
  -5  -1   3   22.30    1.57
  -5  -1   3   25.65    1.76
   5  -1  -3   24.70    1.58
   5   1  -3   28.98    1.58
  -5   1   3   23.54    1.76
  -4  -1   3    2.28    0.50
  -4  -1   3    3.25    0.44
  -4  -1   3    2.82    0.34
  -4   1   3    3.45    0.45
  -4   1   3    3.61    0.51
   4  -1  -3    2.80    0.28
   4  -1  -3    3.36    0.40
   4   1  -3    3.62    0.36
  -3   1   3    0.58    0.24
  -3  -1   3    0.47    0.18
  -3  -1   3    0.39    0.25
   3  -1  -3    0.33    0.17
  -3   1   3    0.62    0.23
  -3  -1   3    0.48    0.20
   3   1  -3    0.63    0.16
   3  -1  -3    0.84    0.13
  -2  -1   3   75.23    4.62
  -2   1   3   69.11    4.61
  -2  -1   3   75.58    4.45
   2  -1  -3   68.45    4.42
  -2   1   3   87.17    4.63
  -2  -1   3   70.38    4.61
   2  -1  -3   69.20    4.19
  -1  -1   3  294.87   20.47
  -1  -1   3  347.33   18.57
  -1   1   3  333.10   20.56
  -1   1   3  323.68   18.57
   1  -1  -3  336.26   19.78
  -1  -1   3  359.93   19.81
   0  -1  -3  369.44   21.40
   0   1   3  355.16   20.07
   0  -1   3  378.73   20.08
   0  -1   3  368.14   21.40
   0   1  -3  325.97   22.21
   1  -1   3   62.20    3.56
  -1  -1  -3   59.84    3.78
  -1   1  -3   61.81    3.77
  -1   1  -3   59.12    3.92
   1   1   3   64.80    3.53
  -1  -1  -3   64.97    3.93
  -2   1  -3   19.74    1.15
   2  -1   3   20.41    1.27
  -2  -1  -3   17.38    1.27
  -2  -1  -3   16.99    1.18
  -2   1  -3   17.30    1.27
   2   1   3   19.07    1.26
   2  -1   3   18.01    1.15
  -3   1  -3  143.63    9.26
  -3  -1  -3  154.62    8.86
   3   1   3  143.89    9.21
  -3   1  -3  146.25    8.81
   3  -1   3  137.41    8.35
   3  -1   3  159.73    9.23
   4   1   3   54.42    3.02
  -4   1  -3   50.15    3.41
   4  -1   3   48.77    3.05
   4  -1   3   55.48    3.40
  -4  -1  -3   48.60    3.41
  -4  -1  -3   53.64    3.18
   4   1   3   49.70    3.38
   5  -1   3   10.68    0.86
  -5  -1  -3   10.90    1.02
   5   1   3   11.59    0.84
  -5   1  -3   11.30    1.00
   5  -1   3   11.66    1.03
   5   1   3   10.45    1.00
  -6  -1  -3    3.37    0.66
   6   1   3    4.65    0.74
   6  -1   3    3.23    0.52
   6  -1   3    3.73    0.66
  -6   1  -3    4.58    0.67
   7  -1   3    8.02    0.82
  -7  -1  -3    9.44    1.08
   7   1   3    8.45    1.02
  -7   1  -3    9.32    1.04
   7  -1   3    7.34    0.95
   8   1   3    1.62    0.64
  -8   1  -3    2.28    0.67
  -8  -1  -3    2.53    0.72
   8  -1   3    0.73    0.53
  -9   1  -3   15.54    1.52
   9   1   3   14.75    1.67
  -9  -1  -3   14.13    1.63
   9  -1   3   15.21    1.53
  -9   2   3   13.42    1.49
   9   2  -3   13.00    1.35
   9  -2  -3   15.14    1.60
  -9  -2   3   12.05    1.42
  -8   2   3    0.88    0.55
   8  -2  -3    1.36    0.48
  -8  -2   3    0.49    0.50
   8   2  -3    1.84    0.64
  -7  -2   3    0.17    0.37
  -7   2   3    0.12    0.43
   7   2  -3    0.17    0.46
  -7   2   3    0.42    0.38
   7  -2  -3    0.13    0.29
  -6  -2   3  199.28   12.11
  -6   2   3  193.02   12.05
  -6   2   3  189.74   12.09
   6  -2  -3  176.76   10.92
   6   2  -3  205.89   10.87
   6   2  -3  181.87   12.06
  -5  -2   3    0.40    0.22
  -5  -2   3   -0.16    0.25
  -5   2   3   -0.06    0.31
   5   2  -3    0.06    0.17
  -5   2   3    0.06    0.25
   5  -2  -3    0.11    0.21
  -4   2   3    2.43    0.40
   4  -2  -3    2.08    0.34
  -4  -2   3    2.76    0.39
   4   2  -3    2.41    0.29
  -4   2   3    2.17    0.40
  -4  -2   3    2.15    0.32
  -3   2   3   34.77    2.37
  -3  -2   3   35.39    2.38
   3  -2  -3   34.54    2.16
   3  -2  -3   35.99    2.20
  -3   2   3   40.83    2.38
  -3  -2   3   35.32    2.27
  -2   2   3    0.06    0.16
  -2  -2   3    0.17    0.15
  -2  -2   3   -0.06    0.20
  -2  -2   3    0.04    0.09
  -2   2   3    0.10    0.15
   2  -2  -3    0.13    0.13
   2  -2  -3    0.14    0.10
  -2  -2   3    0.21    0.14
   1   2  -3 1963.41  105.54
  -1  -2   3 1641.90  101.31
   1  -2  -3 1542.22  101.42
  -1  -2   3 1681.57   95.31
   0   2  -3  159.54    9.62
   0  -2  -3  140.21    9.60
   0   2   3  147.12    8.68
   0   2   3  175.51    9.59
   0  -2   3  148.87    8.70
   0  -2   3  164.25    9.28
   0  -2  -3  149.80    9.27
  -1   2  -3   77.81    5.35
   1   2   3   85.91    4.81
  -1  -2  -3   91.76    5.36
   1  -2   3   86.83    5.14
  -1  -2  -3   86.14    5.16
   1  -2   3   84.84    4.85
   2   2   3 1066.98   60.24
  -2   2  -3  948.13   58.13
  -2  -2  -3  961.82   60.44
  -2  -2  -3  968.64   58.15
   2  -2   3  924.98   54.59
  -2   2  -3 1001.33   60.43
  -3  -2  -3  167.43   10.63
   3  -2   3  167.72   10.02
   3   2   3  174.36   11.03
   3   2   3  202.62    9.96
  -3   2  -3  181.84   11.09
  -3  -2  -3  169.00   11.10
  -4   2  -3   40.16    2.52
  -4  -2  -3   33.15    2.51
   4  -2   3   34.60    2.26
   4   2   3   39.16    2.19
  -4  -2  -3   39.42    2.35
   4   2   3   35.01    2.48
   5  -2   3   13.72    1.26
   5   2   3   15.92    1.27
  -5  -2  -3   16.93    1.12
   5  -2   3   13.40    1.12
  -5  -2  -3   15.07    1.29
  -5   2  -3   17.65    1.29
   5   2   3   16.80    1.07
  -6  -2  -3    2.03    0.54
   6   2   3    1.89    0.58
  -6   2  -3    2.76    0.55
   6  -2   3    2.54    0.61
   6  -2   3    2.17    0.47
   7  -2   3    7.11    0.94
  -7   2  -3    8.79    0.97
   7  -2   3    6.34    0.77
  -7  -2  -3    8.34    1.03
   7   2   3    6.85    0.95
   8   2   3   29.70    2.32
   8  -2   3   29.29    2.29
  -8   2  -3   31.44    2.37
  -8  -2  -3   31.36    2.40
   9   2   3   -0.36    0.62
   9  -2   3   -0.18    0.59
  -9   2  -3    0.04    0.62
  -9  -2  -3   -0.35    0.58
  -9   3   3    7.31    1.12
  -9  -3   3    8.48    1.17
   9   3  -3    7.28    1.09
  -8   3   3    1.99    0.67
   8   3  -3    2.42    0.69
  -8   3   3    0.41    0.47
   8  -3  -3    1.26    0.46
  -8  -3   3    2.19    0.60
   7  -3  -3    2.10    0.50
  -7   3   3    3.39    0.68
  -7   3   3    3.17    0.67
  -7  -3   3    3.00    0.60
   7   3  -3    2.17    0.62
  -6  -3   3    1.03    0.45
  -6   3   3    1.39    0.44
  -6   3   3    2.04    0.50
   6   3  -3    2.15    0.59
   6  -3  -3    0.59    0.35
  -5   3   3   -0.06    0.24
   5   3  -3   -0.45    0.30
  -5  -3   3    0.29    0.26
  -5   3   3    0.22    0.32
   5   3  -3    0.15    0.17
  -5  -3   3   -0.10    0.22
   5  -3  -3   -0.07    0.20
   4   3  -3    1.42    0.42
  -4  -3   3    2.06    0.35
  -4   3   3    1.60    0.36
   4   3  -3    1.37    0.23
  -4   3   3    1.86    0.37
   4  -3  -3    2.04    0.33
  -4  -3   3    1.22    0.28
  -3   3   3    1.35    0.27
  -3  -3   3    0.86    0.25
  -3  -3   3    1.21    0.26
   3  -3  -3    1.11    0.15
  -3  -3   3    1.16    0.17
   3  -3  -3    1.52    0.27
  -3   3   3    1.02    0.27
   3   3  -3    1.11    0.31
  -2  -3   3    8.01    0.64
  -2  -3   3   10.70    0.66
  -2  -3   3    9.21    0.54
  -2   3   3    9.76    0.70
   2  -3  -3    7.69    0.60
   2   3  -3    6.93    0.65
   2  -3  -3    7.54    0.57
  -2   3   3    7.45    0.61
   1   3  -3    6.16    0.45
  -1   3   3    5.01    0.41
  -1   3   3    6.80    0.48
  -1  -3   3    5.40    0.47
  -1  -3   3    5.50    0.39
   1  -3  -3    5.32    0.42
   1  -3  -3    4.94    0.43
   0   3  -3  289.44   16.41
   0   3   3  287.95   16.35
   0   3   3  239.61   16.37
   0  -3   3  256.61   14.82
   0  -3   3  270.98   15.81
   0  -3  -3  250.62   14.81
   0  -3  -3  259.66   15.81
   1   3   3    8.31    0.53
  -1  -3  -3    7.90    0.64
   1  -3   3    8.61    0.62
   1   3   3   10.75    0.71
   1  -3   3    8.09    0.62
  -1   3  -3    9.83    0.67
   2  -3   3   93.41    5.91
   2  -3   3   98.08    5.63
  -2  -3  -3   96.50    5.97
   2   3   3  102.77    6.18
  -2   3  -3  107.38    6.21
  -2  -3  -3   94.30    6.21
   3   3   3   16.63    0.96
  -3   3  -3   18.47    1.17
  -3   3  -3   17.29    1.17
   3  -3   3   14.01    1.07
  -3  -3  -3   14.48    1.16
   3   3   3   15.37    1.18
  -3  -3  -3   14.51    1.10
   4   3   3   13.13    0.87
   4  -3   3   13.24    0.98
  -4  -3  -3   11.04    1.06
  -4   3  -3   15.81    1.08
   4   3   3   12.76    1.07
  -4   3  -3   15.07    1.08
  -4  -3  -3   13.14    0.98
  -5   3  -3   12.10    1.03
  -5  -3  -3   13.69    0.94
   5  -3   3   10.40    0.94
  -5  -3  -3   12.56    1.07
   5   3   3   10.42    1.03
  -6   3  -3   11.31    1.03
   6   3   3   11.68    1.08
  -6  -3  -3   11.90    1.07
   6  -3   3    9.44    1.04
   6  -3   3   10.64    0.95
  -7   3  -3   14.31    1.28
   7  -3   3   13.84    1.17
  -7  -3  -3   16.68    1.37
   7  -3   3   13.19    1.26
   7   3   3   14.27    1.28
   8   3   3    1.00    0.54
  -8   3  -3    1.80    0.60
  -8  -3  -3    0.66    0.60
   8  -3   3    1.77    0.53
   8  -3   3    2.05    0.61
   9   3   3    9.56    1.30
  -9   3  -3   11.07    1.37
  -9  -3  -3   11.23    1.38
   9  -3   3   10.78    1.35
  -9  -4   3    2.17    0.80
  -9   4   3    1.51    0.80
   9   4  -3    1.20    0.67
   9  -4  -3    1.29    0.54
  -8   4   3    1.25    0.61
   8   4  -3    2.64    0.69
   8  -4  -3    1.85    0.49
  -8  -4   3    2.14    0.63
  -8   4   3    0.72    0.49
  -7  -4   3   17.96    1.42
  -7   4   3   17.78    1.41
   7   4  -3   18.89    1.47
  -7   4   3   14.89    1.38
   7  -4  -3   13.10    1.26
  -6   4   3    0.92    0.37
  -6  -4   3    0.81    0.36
  -6   4   3    0.02    0.33
   6   4  -3    0.13    0.42
   6  -4  -3    0.03    0.29
  -5  -4   3    2.70    0.46
  -5   4   3    2.42    0.46
  -5   4   3    2.08    0.45
   5   4  -3    1.37    0.47
   5  -4  -3    2.15    0.41
  -5  -4   3    2.27    0.39
  -4  -4   3    0.45    0.23
   4  -4  -3    0.33    0.20
   4   4  -3    0.38    0.15
  -4   4   3    0.24    0.24
  -4  -4   3    0.11    0.20
   4   4  -3    0.29    0.26
  -4   4   3    0.27    0.22
   3  -4  -3  124.64    7.46
  -3  -4   3  122.61    7.02
  -3  -4   3  139.95    7.85
   3  -4  -3  124.69    7.12
  -3   4   3  119.26    7.80
   3   4  -3  115.39    7.79
  -3  -4   3  126.10    7.56
  -3   4   3  124.80    7.81
  -2   4   3    1.36    0.28
   2   4  -3    1.66    0.26
  -2  -4   3    1.42    0.27
  -2   4   3    1.59    0.23
  -2  -4   3    1.69    0.18
   2  -4  -3    1.41    0.20
   2  -4  -3    1.87    0.27
  -2  -4   3    1.54    0.26
  -1   4   3    0.33    0.17
   1  -4  -3    0.30    0.14
   1  -4  -3    0.49    0.15
   1   4  -3    0.63    0.18
  -1  -4   3    0.43    0.12
  -1  -4   3    0.24    0.19
  -1   4   3    0.33    0.13
   0  -4   3    5.06    0.41
   0   4  -3    5.66    0.44
   0   4   3    4.55    0.39
   0   4   3    4.95    0.44
   0  -4  -3    4.67    0.37
   0  -4  -3    4.73    0.44
   0  -4   3    5.54    0.45
   1  -4   3   23.37    1.47
   1   4   3   27.11    1.62
  -1  -4  -3   22.14    1.58
  -1  -4  -3   23.73    1.56
  -1  -4  -3   23.60    1.38
   1  -4   3   23.60    1.54
   2  -4   3   35.81    2.23
   2   4   3   39.59    2.43
  -2  -4  -3   33.03    2.40
  -2   4  -3   40.84    2.43
   2  -4   3   36.54    2.29
  -2  -4  -3   37.09    2.36
  -3   4  -3    1.30    0.28
  -3   4  -3    1.37    0.30
   3  -4   3    1.07    0.28
  -3  -4  -3    1.01    0.28
   3   4   3    1.02    0.30
  -3   4  -3    0.74    0.15
  -3  -4  -3    0.64    0.26
   4   4   3    4.55    0.63
   4  -4   3    5.92    0.58
  -4  -4  -3    4.82    0.60
  -4   4  -3    5.84    0.59
  -4  -4  -3    4.77    0.53
  -4   4  -3    5.66    0.59
  -5  -4  -3    6.39    0.63
   5   4   3    6.67    0.81
   5  -4   3    6.22    0.69
  -5   4  -3    6.39    0.69
  -5  -4  -3    6.47    0.77
  -5   4  -3    6.75    0.75
  -6  -4  -3    7.67    0.90
  -6   4  -3    7.02    0.83
   6   4   3    7.66    0.92
   6  -4   3    6.22    0.76
   7  -4   3    0.12    0.37
   7   4   3    0.27    0.46
   7  -4   3    0.81    0.47
  -7  -4  -3   -0.22    0.36
  -7   4  -3   -0.01    0.31
  -8   4  -3   -0.11    0.40
   8  -4   3    0.54    0.48
   8   4   3    0.16    0.49
  -8  -4  -3    0.50    0.44
   8  -4   3    0.12    0.38
   9  -4   3    2.36    0.83
  -9   4  -3    1.38    0.72
  -9  -4  -3    1.57    0.74
   9   5  -3    3.70    0.90
  -9   5   3    2.54    0.92
   9  -5  -3    2.25    0.62
  -9   5   3    2.55    0.71
  -9  -5   3    2.60    0.85
   8  -5  -3    6.43    0.92
   8   5  -3    9.34    1.18
  -8   5   3    7.12    1.01
  -8  -5   3   10.52    1.16
  -8   5   3    9.38    1.07
  -7  -5   3   14.35    1.20
   7  -5  -3   10.85    1.08
   7   5  -3   12.95    1.22
  -7   5   3   11.56    1.13
  -7   5   3   12.68    1.16
  -6   5   3    0.02    0.34
  -6  -5   3   -0.44    0.26
  -6  -5   3    0.06    0.31
   6   5  -3    0.51    0.44
   6  -5  -3    0.05    0.28
  -6   5   3   -0.47    0.32
   5   5  -3    1.07    0.43
  -5   5   3    1.16    0.37
   5  -5  -3    1.13    0.35
  -5  -5   3    0.75    0.30
  -5   5   3    0.84    0.33
  -5  -5   3    1.09    0.37
   4   5  -3   16.78    1.30
   4   5  -3   17.37    1.10
  -4  -5   3   19.80    1.34
   4  -5  -3   17.90    1.25
  -4   5   3   17.59    1.31
  -4   5   3   17.08    1.29
  -4  -5   3   18.71    1.30
   3  -5  -3    4.90    0.51
  -3  -5   3    5.30    0.53
  -3  -5   3    5.14    0.38
   3  -5  -3    5.41    0.43
  -3  -5   3    5.67    0.56
  -3   5   3    5.77    0.55
   3   5  -3    5.16    0.53
  -3   5   3    5.29    0.49
  -2   5   3    3.06    0.32
  -2   5   3    2.52    0.38
   2  -5  -3    2.52    0.29
  -2  -5   3    2.52    0.38
   2  -5  -3    2.61    0.33
  -2  -5   3    2.66    0.25
  -1  -5   3   85.23    5.09
   1  -5  -3   79.94    5.04
  -1   5   3   74.94    5.18
  -1  -5   3   85.29    4.70
   1  -5  -3   85.11    4.75
  -1   5   3   85.25    5.22
   1   5  -3   85.17    5.23
   0  -5   3    4.64    0.40
   0  -5  -3    4.08    0.42
   0  -5  -3    4.01    0.35
   0  -5   3    4.24    0.44
   0   5  -3    4.97    0.44
   0   5   3    4.48    0.44
  -1  -5  -3   67.23    3.70
  -1  -5  -3   63.44    4.04
  -1   5  -3   72.69    4.18
   1  -5   3   63.54    4.00
   1  -5   3   62.18    3.78
  -1  -5  -3   64.74    4.15
   1   5   3   64.16    4.15
  -2   5  -3    3.09    0.37
  -2  -5  -3    2.32    0.34
   2  -5   3    2.58    0.29
   2   5   3    3.08    0.44
  -2  -5  -3    2.73    0.37
   2  -5   3    2.52    0.35
   3   5   3   41.42    2.76
   3  -5   3   41.99    2.57
  -3  -5  -3   42.94    2.69
  -3   5  -3   41.18    2.72
  -3  -5  -3   37.25    2.75
  -3   5  -3   45.76    2.78
   3  -5   3   43.99    2.57
  -4   5  -3    0.46    0.27
  -4  -5  -3    0.33    0.25
  -4   5  -3   -0.31    0.25
   4   5   3    0.36    0.33
   4  -5   3    0.42    0.27
  -4  -5  -3    0.00    0.23
  -5   5  -3    7.95    0.78
   5  -5   3    6.94    0.78
  -5  -5  -3    7.95    0.79
  -5   5  -3    9.03    0.80
   5   5   3    8.03    0.86
  -5  -5  -3    8.53    0.77
   6  -5   3   17.23    1.32
  -6  -5  -3   17.38    1.39
   6   5   3   16.55    1.41
  -6   5  -3   16.09    1.35
   7   5   3   -0.05    0.44
  -7   5  -3    0.62    0.38
   7  -5   3   -0.44    0.38
  -7  -5  -3    0.42    0.38
   7  -5   3    0.20    0.39
  -8   5  -3    2.10    0.60
   8   5   3    0.82    0.55
   8  -5   3    1.62    0.58
   8  -5   3    0.83    0.50
  -8  -5  -3    1.52    0.51
  -9   5  -3    1.24    0.70
   9  -5   3    2.04    0.61
   9  -5   3    1.51    0.75
   9   6  -3    8.61    1.18
   9  -6  -3    7.17    0.97
  -8   6   3    1.24    0.57
   8  -6  -3    0.54    0.42
   8   6  -3    1.22    0.60
  -8  -6   3    1.58    0.63
  -8   6   3    1.52    0.56
  -7   6   3    8.16    0.89
   7   6  -3    8.35    1.09
   7  -6  -3    7.70    0.92
  -7   6   3    8.83    0.93
  -7  -6   3    8.89    0.94
  -6  -6   3   46.36    3.20
  -6   6   3   47.62    3.19
  -6   6   3   42.47    3.17
   6   6  -3   48.51    3.22
  -6  -6   3   48.37    3.08
   6  -6  -3   47.24    2.99
  -5  -6   3    0.02    0.27
  -5   6   3    0.31    0.28
   5   6  -3    0.34    0.37
   5  -6  -3    0.20    0.28
  -5   6   3    0.28    0.34
  -5  -6   3    0.45    0.32
  -4  -6   3   10.51    0.90
  -4   6   3   11.19    0.87
  -4  -6   3   10.63    0.89
   4  -6  -3    9.59    0.85
   4   6  -3   10.70    0.89
  -4   6   3    9.98    0.89
  -3   6   3    1.23    0.25
   3  -6  -3    0.95    0.26
   3   6  -3    0.74    0.27
   3  -6  -3    0.74    0.19
  -3  -6   3    0.88    0.15
  -3  -6   3    0.52    0.31
  -3   6   3    1.15    0.30
  -3  -6   3    0.76    0.28
  -2   6   3   17.98    1.23
  -2  -6   3   15.55    1.29
   2  -6  -3   17.23    1.19
  -2   6   3   17.38    1.27
  -2  -6   3   18.82    1.09
   2   6  -3   18.96    1.29
   2  -6  -3   18.34    1.21
  -1  -6   3    1.68    0.21
  -1  -6   3    2.02    0.36
   1   6  -3    1.62    0.29
  -1   6   3    1.89    0.32
   1  -6  -3    1.67    0.27
   1  -6  -3    1.35    0.27
   0  -6   3   80.28    4.79
   0   6   3   75.47    4.89
   0  -6  -3   76.05    4.78
   0   6  -3   82.12    4.93
   0  -6   3   76.09    4.46
   0  -6  -3   80.91    4.44
   0   6   3   73.57    4.90
   1   6   3    3.76    0.47
   1   6   3    3.35    0.40
   1  -6   3    3.52    0.39
  -1  -6  -3    3.39    0.42
  -1  -6  -3    3.47    0.28
   1  -6   3    3.33    0.40
  -2  -6  -3  229.01   14.73
   2   6   3  218.46   14.67
  -2   6  -3  257.08   14.75
  -2  -6  -3  242.20   14.23
   2  -6   3  231.38   14.15
   2  -6   3  241.53   13.37
   3  -6   3   22.33    1.40
  -3  -6  -3   20.44    1.45
   3   6   3   18.76    1.45
  -3   6  -3   22.16    1.47
   3  -6   3   20.19    1.32
  -3  -6  -3   19.01    1.45
  -4   6  -3    3.08    0.47
   4   6   3    3.01    0.55
  -4  -6  -3    3.31    0.47
  -4   6  -3    4.01    0.52
   4  -6   3    3.41    0.50
  -4  -6  -3    3.48    0.49
  -5  -6  -3    2.12    0.46
  -5   6  -3    3.25    0.55
  -5  -6  -3    1.60    0.43
   5  -6   3    2.43    0.49
  -5   6  -3    3.13    0.52
   5   6   3    2.28    0.56
   6   6   3    0.78    0.50
  -6  -6  -3    0.06    0.33
  -6   6  -3    0.68    0.41
  -6  -6  -3    0.02    0.32
  -6   6  -3    0.67    0.36
   6  -6   3    0.09    0.35
   7  -6   3    3.29    0.62
  -7  -6  -3    4.76    0.70
  -7   6  -3    2.49    0.58
   7   6   3    3.40    0.73
   8   6   3    3.69    0.78
  -8  -6  -3    3.00    0.60
   8  -6   3    3.07    0.66
   8  -6   3    1.39    0.64
  -8   6  -3    1.76    0.59
   9  -6   3    0.85    0.55
   9  -6   3    1.15    0.78
  -8   7   3   17.49    1.59
  -8  -7   3   18.28    1.63
   8   7  -3   20.59    1.69
  -8   7   3   19.50    1.62
   8  -7  -3   18.41    1.55
  -7  -7   3   13.34    1.25
   7  -7  -3   14.73    1.25
  -7   7   3   13.85    1.25
  -7   7   3   12.94    1.24
   7   7  -3   15.46    1.34
   6   7  -3   -0.20    0.38
  -6   7   3    0.59    0.35
  -6  -7   3    0.68    0.39
   6  -7  -3   -0.15    0.29
  -6  -7   3   -0.09    0.33
  -6   7   3    0.19    0.38
  -5  -7   3    4.21    0.60
   5  -7  -3    3.61    0.56
   5   7  -3    4.17    0.63
  -5   7   3    3.58    0.62
  -5  -7   3    4.05    0.59
  -5   7   3    3.91    0.56
   4  -7  -3    1.01    0.33
  -4   7   3    1.06    0.30
  -4  -7   3    1.43    0.37
  -4  -7   3    1.39    0.41
  -4   7   3    1.52    0.38
   4   7  -3    1.69    0.39
  -3  -7   3    6.90    0.74
   3  -7  -3    6.06    0.54
  -3   7   3    5.60    0.57
  -3   7   3    6.23    0.64
   3  -7  -3    6.35    0.61
  -2  -7   3    8.07    0.76
  -2   7   3    6.95    0.65
   2  -7  -3    8.39    0.68
   2   7  -3    9.01    0.73
  -2   7   3    8.70    0.72
   2  -7  -3    8.14    0.67
  -2  -7   3    8.93    0.57
  -1   7   3    3.82    0.41
   1  -7  -3    3.77    0.39
  -1   7   3    3.78    0.46
   1  -7  -3    2.92    0.41
  -1  -7   3    4.18    0.52
   0   7   3  117.88    7.75
   0   7   3  122.54    7.76
   0  -7   3  130.09    7.57
   0   7  -3  128.31    7.79
   0  -7  -3  124.82    7.54
   0  -7   3  117.43    7.03
   0  -7  -3  126.46    7.02
   1   7   3   22.51    1.61
  -1   7  -3   25.80    1.66
   1  -7   3   24.18    1.52
   1   7   3   24.25    1.65
  -1  -7  -3   23.82    1.42
  -1  -7  -3   22.89    1.63
   1  -7   3   23.84    1.60
   2   7   3    6.51    0.68
  -2   7  -3    6.20    0.61
   2  -7   3    6.12    0.60
   2  -7   3    5.66    0.55
  -2  -7  -3    6.50    0.63
  -2  -7  -3    7.02    0.62
   3   7   3   49.30    3.27
   3  -7   3   50.57    3.09
  -3  -7  -3   48.61    3.27
  -3  -7  -3   48.32    3.20
   3  -7   3   50.12    3.04
  -3   7  -3   51.41    3.28
   4  -7   3   18.90    1.33
  -4  -7  -3   16.65    1.34
  -4   7  -3   18.36    1.32
  -4   7  -3   16.80    1.34
   4   7   3   17.72    1.37
  -4  -7  -3   19.13    1.38
  -5  -7  -3   10.27    0.95
  -5  -7  -3   11.40    0.98
   5  -7   3   10.82    0.97
  -5   7  -3   11.72    0.97
   5   7   3    9.32    0.99
  -5   7  -3    9.85    0.94
  -6  -7  -3    0.62    0.40
   6  -7   3    0.99    0.46
  -6   7  -3    0.77    0.41
  -6  -7  -3    1.49    0.45
  -6   7  -3    0.91    0.46
   6   7   3    0.91    0.50
  -7   7  -3    1.11    0.46
  -7  -7  -3    1.11    0.39
   7   7   3    1.49    0.61
   7  -7   3    1.29    0.48
   8   7   3    2.04    0.71
  -8  -7  -3    2.32    0.60
  -8   7  -3    1.74    0.63
   8  -7   3    2.42    0.62
   8  -7   3    3.12    0.80
   8  -8  -3    0.19    0.43
   8   8  -3    1.86    0.66
  -8  -8   3    1.57    0.66
   7  -8  -3    1.46    0.50
  -7   8   3    1.62    0.52
  -7  -8   3    1.80    0.55
   7   8  -3    4.33    0.78
  -7   8   3    1.22    0.53
  -6   8   3    7.59    0.96
  -6   8   3   10.10    0.92
  -6  -8   3   12.71    1.04
  -6  -8   3    9.68    0.94
   6  -8  -3    6.51    0.90
  -5   8   3    1.73    0.41
  -5  -8   3    1.71    0.48
   5   8  -3    1.80    0.49
  -5  -8   3    1.24    0.44
   5  -8  -3    1.42    0.41
  -4  -8   3    1.24    0.42
  -4  -8   3    1.18    0.38
  -4   8   3    0.80    0.37
   4  -8  -3    0.06    0.27
   4   8  -3    1.24    0.39
  -4   8   3    0.56    0.27
   3  -8  -3    0.73    0.31
   3  -8  -3    0.62    0.28
   3   8  -3    1.53    0.37
  -2   8   3    0.60    0.27
   2  -8  -3    0.36    0.23
   2  -8  -3    0.60    0.25
  -2  -8   3    0.76    0.33
   2   8  -3    0.82    0.29
   1  -8  -3    5.53    0.53
   1  -8  -3    4.82    0.55
  -1  -8   3    5.59    0.64
   0  -8   3    6.33    0.55
   0   8  -3    8.24    0.64
   0  -8  -3    5.59    0.63
   0   8   3    7.64    0.65
   0  -8   3    6.32    0.67
   0  -8  -3    5.99    0.53
   1   8   3    1.52    0.34
  -1  -8  -3    0.95    0.34
  -1  -8  -3    1.02    0.20
   1   8   3    1.52    0.30
   2  -8   3    3.73    0.48
  -2  -8  -3    3.09    0.49
  -3  -8  -3    4.81    0.65
   3  -8   3    5.35    0.64
   3  -8   3    5.62    0.54
  -4   8  -3    5.74    0.68
   4   8   3    5.19    0.73
  -4  -8  -3    5.57    0.71
  -4  -8  -3    6.27    0.65
   4  -8   3    5.28    0.67
  -5   8  -3    3.43    0.55
  -5  -8  -3    2.56    0.56
   5   8   3    3.50    0.65
   5  -8   3    3.67    0.61
  -5  -8  -3    2.65    0.51
   6  -8   3    7.81    0.92
  -6  -8  -3    8.08    0.85
   6   8   3    7.93    1.02
  -6   8  -3    8.91    0.98
  -6   8  -3    8.09    0.93
  -6  -8  -3    8.88    0.94
  -7  -8  -3    1.89    0.51
   7  -8   3    2.12    0.61
   7   8   3    0.77    0.59
  -7   8  -3    1.19    0.47
   8  -8   3   -0.26    0.45
  -8   8  -3    0.68    0.53
   8   8   3   -0.05    0.53
  -8  -8  -3    1.26    0.48
  -8   9   3    3.66    0.74
  -8  -9   3    3.93    0.85
   8   9  -3    6.08    0.99
   8  -9  -3    1.70    0.62
  -7   9   3   11.38    1.12
   7   9  -3   12.14    1.30
  -7  -9   3   10.37    1.16
   7  -9  -3   10.97    1.15
   6   9  -3    0.75    0.55
   6  -9  -3    1.51    0.47
  -6  -9   3    0.90    0.45
  -6   9   3    4.04    0.65
  -6  -9   3    1.04    0.49
  -6   9   3    3.45    0.56
   5   9  -3   23.97    1.95
   5  -9  -3   30.64    1.96
  -5   9   3   27.03    1.98
  -5  -9   3   27.91    2.01
  -5  -9   3   24.49    1.98
  -5   9   3   30.87    1.99
   4   9  -3    8.52    0.82
  -4  -9   3    8.97    0.95
   4   9  -3    9.16    0.85
  -4   9   3    6.53    0.84
  -3   9   3    8.35    0.70
  -3   9   3    7.13    0.72
   3  -9  -3    6.16    0.71
   3  -9  -3    6.77    0.69
  -2   9   3   25.27    1.86
  -2  -9   3   29.00    1.95
   2  -9  -3   28.72    1.78
   2   9  -3   26.29    1.88
  -2   9   3   25.73    1.84
   2  -9  -3   28.03    1.84
  -1   9   3   11.50    0.78
  -1   9   3   10.82    0.81
  -1  -9   3    8.42    0.65
   1  -9  -3    7.67    0.77
  -1  -9   3    8.62    0.84
   1   9  -3    6.90    0.75
   1  -9  -3    8.16    0.71
   0  -9  -3   16.18    1.39
   0  -9   3   19.38    1.46
   0  -9   3   20.39    1.28
   0  -9  -3   18.14    1.25
   0   9   3   21.46    1.42
   0   9  -3   19.44    1.40
   0   9   3   20.08    1.37
   1   9   3   35.15    2.39
   1  -9   3   36.15    2.21
   1  -9   3   39.41    2.39
  -1  -9  -3   34.43    2.39
  -1   9  -3   35.77    2.42
   1   9   3   34.01    2.39
   2  -9   3   26.00    1.85
   2   9   3   30.57    2.01
  -2  -9  -3   27.68    1.99
  -2   9  -3   27.95    1.99
   2  -9   3   28.37    1.91
   2   9   3   30.18    2.00
  -3  -9  -3  149.15    9.38
  -3  -9  -3  156.05    9.12
  -3   9  -3  142.95    9.35
   3   9   3  135.87    9.31
   3  -9   3  157.66    8.57
   4  -9   3    2.56    0.52
  -4  -9  -3    2.00    0.52
  -4   9  -3    2.67    0.51
  -4  -9  -3    2.37    0.45
   5   9   3   15.29    1.25
  -5   9  -3   12.94    1.13
  -5  -9  -3   11.88    1.12
   5  -9   3   14.34    1.19
  -5  -9  -3   12.87    1.18
  -6  -9  -3    4.33    0.72
   6  -9   3    4.37    0.72
  -6   9  -3    4.60    0.69
   6   9   3    3.46    0.76
  -6  -9  -3    3.83    0.62
  -7  -9  -3   11.18    1.08
   7   9   3   11.66    1.20
  -7   9  -3   10.96    1.12
   7  -9   3   11.99    1.22
   8  -9   3    1.74    0.63
   8   9   3    2.64    0.78
  -8   9  -3    2.11    0.70
  -8  10   3    1.06    0.52
   8  10  -3   -0.65    0.54
  -7  10   3   14.09    1.28
   7 -10  -3   12.77    1.24
  -7 -10   3   13.13    1.27
   7  10  -3   13.06    1.33
   6 -10  -3    5.85    0.80
  -6  10   3    5.86    0.81
  -6 -10   3    7.06    0.88
   6  10  -3    4.93    0.86
  -6 -10   3    5.28    0.84
  -6  10   3    7.13    0.88
  -5  10   3    0.76    0.41
   5 -10  -3    0.05    0.34
  -5 -10   3    0.03    0.49
  -5  10   3    0.75    0.35
   5  10  -3    1.54    0.49
   4  10  -3   12.53    1.08
   4 -10  -3   10.23    1.04
   4  10  -3   15.38    1.18
  -4 -10   3   13.49    1.21
  -4  10   3   13.49    1.07
  -4  10   3   10.42    1.07
  -3  10   3   44.59    3.01
   3 -10  -3   44.78    2.84
  -3  10   3   47.53    3.01
  -3 -10   3   47.71    3.11
   3  10  -3   40.77    3.03
   2 -10  -3    1.68    0.39
  -2  10   3    1.89    0.39
   2 -10  -3    2.22    0.43
   1 -10  -3   40.27    2.63
  -1 -10   3   40.99    2.37
   1 -10  -3   40.54    2.45
  -1  10   3   37.76    2.65
  -1 -10   3   43.79    2.73
  -1  10   3   37.68    2.64
   1  10  -3   37.67    2.67
   0 -10   3    3.32    0.55
   0 -10   3    2.73    0.40
   0 -10  -3    3.57    0.53
   0 -10  -3    2.74    0.38
   0  10  -3    3.70    0.52
   1 -10   3   16.00    1.35
   1 -10   3   15.86    1.23
   1  10   3   19.77    1.34
  -1  10  -3   16.60    1.34
  -1 -10  -3   17.95    1.40
   1  10   3   21.02    1.36
   2 -10   3   57.75    3.44
   2  10   3   46.94    3.51
   2 -10   3   57.89    3.28
   2  10   3   55.22    3.54
  -2 -10  -3   49.56    3.49
  -2  10  -3   53.47    3.54
   3 -10   3   10.30    1.00
   3  10   3   12.59    1.06
  -3 -10  -3   10.83    1.08
   3  10   3   13.30    1.10
  -3  10  -3   11.21    1.01
   4  10   3   11.43    1.05
  -4 -10  -3    9.67    1.02
  -4 -10  -3    8.79    0.95
  -4  10  -3   11.43    0.97
   4 -10   3   10.92    0.99
   5 -10   3   37.04    2.28
  -5  10  -3   30.97    2.28
   5  10   3   30.70    2.33
  -5 -10  -3   28.96    2.26
  -5 -10  -3   33.36    2.31
  -6 -10  -3   13.03    1.15
   6  10   3   12.19    1.27
  -6  10  -3   12.25    1.17
   6 -10   3   13.26    1.24
  -6 -10  -3   14.59    1.27
  -7 -10  -3    0.93    0.41
   7  10   3    1.73    0.69
  -7  10  -3    1.41    0.57
   7 -10   3    2.27    0.62
  -7  11   3    5.25    0.88
  -7 -11   3    7.80    1.02
   7 -11  -3    5.51    0.88
  -7 -11   3    5.89    0.95
   6 -11  -3   -0.10    0.41
   6  11  -3    1.02    0.46
  -6  11   3    1.17    0.45
  -6 -11   3    1.40    0.58
  -5 -11   3    1.29    0.53
   5 -11  -3    1.80    0.50
   5  11  -3    2.04    0.59
  -5  11   3    2.42    0.50
  -5  11   3    2.50    0.54
   4  11  -3    0.65    0.39
  -4 -11   3    0.46    0.47
   4 -11  -3    1.24    0.45
  -3  11   3    1.80    0.41
  -2 -11   3    0.44    0.43
  -2  11   3    0.57    0.32
   2  11  -3    0.67    0.34
   2 -11  -3    0.32    0.35
  -2  11   3    0.32    0.28
   2 -11  -3    0.96    0.36
  -1 -11   3   12.63    1.19
   1 -11  -3   10.41    1.05
   1  11  -3   12.81    1.02
   1 -11  -3   11.93    0.96
   0 -11   3    2.65    0.55
   0  11  -3    3.36    0.52
   0  11   3    1.70    0.48
   0 -11  -3    2.35    0.51
   0  11   3    2.53    0.45
   1  11   3    7.78    0.72
  -1  11  -3    7.71    0.72
  -1 -11  -3    5.77    0.77
   1 -11   3    4.37    0.69
   1  11   3    5.92    0.74
   2 -11   3   16.17    1.26
  -2 -11  -3   13.41    1.36
   2  11   3   20.94    1.40
  -2  11  -3   18.71    1.37
   2 -11   3   14.66    1.29
   2  11   3   17.83    1.35
   3  11   3   21.80    1.75
   3  11   3   23.34    1.76
  -3  11  -3   22.82    1.75
  -3 -11  -3   23.81    1.81
   3 -11   3   26.76    1.72
  -4 -11  -3    0.43    0.38
   4 -11   3    0.41    0.37
   4  11   3    0.12    0.38
  -4  11  -3    0.70    0.33
   4  11   3   -0.13    0.41
  -5  11  -3    0.22    0.32
  -5 -11  -3   -0.31    0.36
   5 -11   3    0.29    0.35
  -5 -11  -3    0.17    0.33
   5  11   3   -0.10    0.49
   6  11   3    0.18    0.60
   6 -11   3   -0.15    0.42
  -6 -11  -3    0.70    0.35
  -6  11  -3    0.14    0.40
  -6 -11  -3   -0.38    0.42
   7  11   3    0.02    0.58
  -7  11  -3    0.44    0.53
   7 -11   3   -0.13    0.40
  -7 -11  -3    0.80    0.38
  -7 -12   3    0.31    0.63
  -6 -12   3    0.46    0.55
   6 -12  -3   -0.15    0.41
   6  12  -3    0.63    0.60
  -6  12   3    0.93    0.46
  -5 -12   3    3.16    0.73
   5 -12  -3    4.05    0.69
   5  12  -3    4.01    0.76
  -5  12   3    4.44    0.69
  -4 -12   3    7.57    0.99
   4 -12  -3    6.98    0.84
   4  12  -3    7.08    0.89
  -4  12   3    8.25    0.83
  -4  12   3    7.66    0.89
   3  12  -3   16.57    1.49
  -3 -12   3   17.48    1.61
  -3  12   3   22.22    1.51
  -3  12   3   21.48    1.49
   3 -12  -3   17.14    1.43
  -2 -12   3   -0.65    0.47
  -2  12   3    1.41    0.39
   2 -12  -3    0.76    0.32
   2 -12  -3    0.75    0.37
  -2  12   3    0.82    0.33
  -1  12   3    7.66    0.72
  -1 -12   3    4.66    0.83
   1 -12  -3    6.38    0.77
   1  12  -3    7.51    0.73
  -1  12   3    4.90    0.67
   0 -12   3   13.11    1.05
   0 -12  -3   14.88    1.28
   0  12   3   16.21    1.22
   0  12   3   18.38    1.22
   0 -12   3   13.98    1.28
   0  12  -3   11.97    1.17
  -1 -12  -3    6.42    0.82
   1 -12   3    4.99    0.77
   1  12   3    8.53    0.78
   1  12   3    7.52    0.84
  -1  12  -3    8.00    0.78
   1 -12   3    5.95    0.67
   2 -12   3   -0.64    0.39
   2 -12   3    1.00    0.37
   2  12   3    0.79    0.38
   3  12   3    0.75    0.48
  -3  12  -3    0.88    0.40
   3 -12   3    1.28    0.44
  -3 -12  -3    1.38    0.45
   3  12   3    0.77    0.39
  -4  12  -3    5.67    0.75
   4  12   3    6.33    0.85
   4  12   3    4.64    0.76
   4 -12   3    4.49    0.71
  -4 -12  -3    5.01    0.77
   5  12   3    3.56    0.69
  -5 -12  -3    4.73    0.77
  -5  12  -3    3.60    0.65
   5 -12   3    2.70    0.65
   5  12   3    4.84    0.81
  -6 -12  -3    0.38    0.38
  -6 -12  -3   -0.20    0.48
   6 -12   3    0.93    0.54
  -6  12  -3    0.42    0.49
   6  12   3    0.21    0.52
   7  12   3    0.03    0.65
  -7  12  -3   -0.03    0.58
   6 -13  -3    2.27    0.66
   6  13  -3    1.18    0.67
  -6 -13   3    1.96    0.69
   5  13  -3    2.04    0.64
   5 -13  -3    2.49    0.61
  -5 -13   3    1.93    0.66
   4  13  -3    5.22    0.79
  -4 -13   3    4.62    0.86
   4 -13  -3    5.93    0.78
  -3  13   3    0.11    0.33
  -3  13   3    0.01    0.32
   3  13  -3    0.26    0.35
  -3 -13   3   -0.39    0.41
   3 -13  -3    0.11    0.31
   2 -13  -3   25.98    1.74
  -2  13   3   22.51    1.78
  -2 -13   3   25.97    1.96
   2  13  -3   25.11    1.87
   2 -13  -3   25.03    1.82
  -2  13   3   23.14    1.78
  -1 -13   3    0.26    0.46
   1 -13  -3    1.65    0.46
  -1  13   3    0.87    0.38
  -1  13   3    1.88    0.44
   1  13  -3    1.50    0.46
   0 -13   3   16.22    1.48
   0  13  -3   16.53    1.40
   0 -13  -3   18.39    1.46
   0  13   3   17.23    1.37
   0  13   3   19.31    1.42
   1  13   3    6.45    0.81
  -1 -13  -3    7.07    0.85
   1 -13   3    5.25    0.65
   1 -13   3    6.19    0.79
   1  13   3    6.30    0.75
  -1  13  -3    5.83    0.78
   2  13   3    1.92    0.48
   2 -13   3    1.40    0.41
  -2 -13  -3    1.79    0.52
   2  13   3    0.94    0.39
   2 -13   3    0.96    0.44
  -2  13  -3    1.26    0.46
  -3  13  -3   12.83    1.19
   3 -13   3   13.95    1.18
  -3 -13  -3   15.07    1.30
   3  13   3   13.54    1.20
   3  13   3   13.79    1.23
  -4 -13  -3    1.52    0.54
   4 -13   3    0.39    0.39
  -4  13  -3    0.83    0.43
   4  13   3    0.61    0.46
   4  13   3    1.57    0.58
   5 -13   3    0.54    0.48
   5  13   3    1.27    0.60
  -5 -13  -3    0.81    0.55
   5  13   3    0.88    0.57
  -5  13  -3    1.09    0.48
  -6  13  -3    9.26    1.11
  -6 -13  -3   11.78    1.26
   6  13   3    5.15    1.05
   6  13   3    8.30    1.13
   6 -13   3    8.64    1.08
  -6 -14   3    1.03    0.65
   5  14  -3    1.52    0.63
   5 -14  -3    1.23    0.53
  -5 -14   3   -0.13    0.57
   4 -14  -3    6.16    0.83
  -4 -14   3    6.74    0.99
   4  14  -3    5.83    0.88
   3  14  -3    1.34    0.51
   3 -14  -3    0.23    0.37
  -3 -14   3    0.84    0.49
   2  14  -3    1.29    0.46
  -2 -14   3    1.03    0.53
  -2  14   3    1.23    0.44
  -1 -14   3    3.61    0.71
   1  14  -3    3.42    0.64
   1 -14  -3    3.21    0.64
  -1  14   3    4.69    0.64
   0  14  -3    2.68    0.60
   0  14   3    3.25    0.56
   0 -14  -3    2.45    0.61
   0 -14   3    3.21    0.66
  -1  14  -3    0.53    0.35
  -1 -14  -3    1.03    0.43
   1  14   3   -0.17    0.34
   1 -14   3   -0.07    0.42
   2  14   3    6.36    0.83
  -2  14  -3    5.18    0.78
   2 -14   3    6.34    0.72
  -2 -14  -3    6.33    0.86
   3  14   3    0.23    0.34
   3 -14   3    0.10    0.35
  -3  14  -3    0.31    0.40
  -3 -14  -3   -0.24    0.39
   4  14   3    6.61    0.90
  -4  14  -3    5.44    0.82
  -4 -14  -3    7.24    0.98
   4  14   3    5.51    0.86
   4 -14   3    5.52    0.80
  -5  14  -3    0.69    0.53
   5 -14   3    0.79    0.46
   5  14   3    0.44    0.60
  -5 -14  -3    1.14    0.64
  -6  14  -3    0.82    0.59
   5 -15  -3    0.17    0.49
  -5 -15   3   -0.74    0.57
   4  15  -3   -0.57    0.49
  -4 -15   3   -0.67    0.51
   4 -15  -3   -0.13    0.42
  -3 -15   3    0.09    0.46
   3 -15  -3    0.73    0.41
   3  15  -3    1.36    0.62
  -2 -15   3   -0.15    0.41
   2  15  -3    0.14    0.43
  -1 -15   3    0.27    0.48
  -1  15   3    0.09    0.41
   1 -15  -3    0.88    0.49
   1  15  -3    0.43    0.42
   0  15  -3    2.22    0.57
   0  15   3    2.43    0.54
   0 -15  -3    2.77    0.59
   0 -15   3    1.51    0.55
  -1 -15  -3    0.72    0.45
   1  15   3    0.84    0.44
   1 -15   3   -0.09    0.41
  -1  15  -3    0.08    0.36
  -2 -15  -3    0.58    0.45
   2 -15   3    0.83    0.36
  -2  15  -3    0.95    0.47
   2  15   3    0.86    0.49
   3 -15   3    3.36    0.60
  -3  15  -3    2.49    0.65
  -3 -15  -3    2.66    0.64
   3  15   3    3.70    0.69
   4 -15   3    2.78    0.65
  -4  15  -3    2.24    0.65
  -4 -15  -3    2.22    0.72
   4  15   3    1.83    0.63
   5  15   3    0.00    0.60
   5 -15   3    0.06    0.54
  -5  15  -3   -0.44    0.51
   4 -16  -3    5.97    0.89
  -3 -16   3    0.03    0.46
   3  16  -3    0.29    0.59
   2  16  -3    0.87    0.56
  -2 -16   3    0.42    0.49
  -1 -16   3    0.91    0.48
   1 -16  -3    0.33    0.47
   1  16  -3    0.10    0.45
   0  16  -3    3.47    0.76
   0 -16  -3    5.46    0.83
   0 -16   3    4.24    0.82
   0  16   3    3.89    0.69
   1 -16   3   -0.10    0.41
  -1  16  -3    0.09    0.46
  -1 -16  -3    0.90    0.48
   1  16   3    0.34    0.43
  -2  16  -3    0.84    0.57
  -2 -16  -3    1.14    0.49
   2  16   3    0.83    0.52
   3  16   3    1.02    0.68
   3 -16   3    0.43    0.46
  -3  16  -3    0.08    0.54
  -3 -16  -3    0.15    0.47
  -4  16  -3    1.30    0.63
   4 -16   3    2.50    0.67
   4  16   3    1.54    0.71
  -2 -17   3    1.05    0.56
   2  17  -3    0.75    0.64
  -1 -17   3    2.92    0.73
   1 -17  -3    3.02    0.70
   1  17  -3    1.51    0.69
   0  17  -3    2.38    0.78
   0 -17   3    3.17    0.72
   0 -17  -3    3.92    0.74
  -1  17  -3    2.26    0.72
  -1 -17  -3    2.53    0.71
   2  17   3    0.87    0.64
  -2  17  -3   -0.27    0.59
  -2 -17  -3    1.60    0.61
   3  17   3    0.44    0.73
  -3  17  -3   -0.03    0.59
   0 -18   3    3.28    0.74
   0 -18  -3    3.51    0.79
   9   0  -4    0.89    0.63
  -9   0   4    1.33    0.68
  -8   0   4    1.14    0.59
  -7   0   4   12.79    1.18
  -7   0   4   12.60    1.20
   7   0  -4   12.76    1.03
  -6   0   4  128.23    8.15
  -6   0   4  123.67    8.17
   6   0  -4  131.00    7.36
  -5   0   4   30.72    2.10
   5   0  -4   29.48    1.87
  -5   0   4   28.81    2.08
  -4   0   4  190.85   12.53
  -4   0   4  189.45   11.98
  -4   0   4  219.95   12.51
   4   0  -4  201.97   11.33
  -3   0   4   11.64    0.83
  -3   0   4   11.57    0.90
   3   0  -4   11.70    0.82
  -3   0   4   12.02    0.94
  -2   0   4 1075.46   69.05
  -2   0   4 1136.46   68.62
  -2   0   4 1132.74   62.18
  -1   0   4 2617.92  151.45
  -1   0   4 2282.19  151.71
  -1   0   4 2529.78  137.30
   1   0  -4 2394.10  146.03
   0   0  -4 1235.43   72.33
   0   0   4 1228.31   67.93
   0   0  -4 1142.49   75.08
   0   0   4 1253.41   74.88
   1   0   4    6.17    0.47
  -1   0  -4    4.73    0.41
  -1   0  -4    5.28    0.40
   1   0   4    4.50    0.37
  -2   0  -4   39.35    2.61
   2   0   4   42.54    2.47
  -2   0  -4   40.73    2.76
   2   0   4   48.53    2.74
   3   0   4  509.71   26.38
  -3   0  -4  412.19   29.23
  -3   0  -4  490.65   28.07
   3   0   4  473.75   29.12
   4   0   4  140.10    7.11
  -4   0  -4  134.19    7.49
  -4   0  -4  103.13    7.87
   4   0   4  119.82    7.84
   5   0   4  112.26    6.31
   5   0   4  103.83    6.97
  -5   0  -4  112.91    7.06
   6   0   4    2.23    0.44
  -6   0  -4    2.26    0.56
   6   0   4    2.27    0.58
   7   0   4   13.12    1.24
  -7   0  -4   13.69    1.29
   8   0   4   39.43    3.05
  -8   0  -4   46.82    3.19
   9   0   4   21.05    1.89
  -9   0  -4   21.30    1.91
   9  -1  -4   -0.06    0.58
   9   1  -4    0.98    0.62
  -9   1   4    0.31    0.56
  -9  -1   4    0.73    0.57
   8  -1  -4   16.41    1.37
  -8   1   4   18.67    1.59
   8   1  -4   19.88    1.64
  -8  -1   4   18.08    1.56
   7   1  -4   13.37    0.97
  -7  -1   4   11.33    1.10
  -7   1   4    9.43    1.05
  -7   1   4   10.27    1.09
   7  -1  -4   11.77    0.97
   6  -1  -4   31.49    2.14
  -6  -1   4   36.02    2.45
  -6   1   4   35.22    2.42
  -6   1   4   31.88    2.40
  -6  -1   4   33.83    2.40
   6   1  -4   34.40    2.13
  -5  -1   4    0.86    0.45
  -5  -1   4    2.07    0.30
   5   1  -4    1.77    0.31
  -5  -1   4    1.68    0.39
  -5   1   4    1.25    0.44
   5  -1  -4    1.19    0.31
  -5   1   4    1.46    0.40
   4  -1  -4   96.49    5.86
  -4   1   4   98.93    6.49
  -4  -1   4  110.18    6.49
  -4   1   4  107.76    6.48
   4  -1  -4   95.91    6.14
   4   1  -4  110.39    5.86
  -4  -1   4   94.24    6.47
  -4  -1   4  104.85    6.20
   3  -1  -4    0.59    0.14
  -3   1   4    0.97    0.29
   3  -1  -4    0.50    0.18
  -3  -1   4    0.45    0.27
  -3  -1   4    0.54    0.19
  -3  -1   4    0.35    0.20
  -3   1   4    0.16    0.20
  -2   1   4   63.97    3.85
  -2  -1   4   73.05    3.85
   2  -1  -4   67.52    4.08
  -2   1   4   69.73    4.24
  -2  -1   4   64.32    4.24
  -2  -1   4   71.93    4.11
  -2  -1   4   61.52    4.23
   1   1  -4    0.02    0.09
  -1   1   4    0.05    0.09
  -1  -1   4    0.05    0.10
  -1   1   4    0.07    0.13
  -1  -1   4   -0.01    0.14
   1  -1  -4    0.10    0.12
   0   1  -4  199.75   12.45
   0   1   4  204.92   11.67
   0  -1   4  208.28   11.68
   0  -1  -4  216.43   12.46
   0   1   4  238.32   12.88
   0   1  -4  183.64   12.90
   1   1   4    9.09    0.56
  -1  -1  -4    8.93    0.62
  -1   1  -4    8.11    0.63
   1  -1   4    8.77    0.59
  -1  -1  -4    9.02    0.64
  -1   1  -4    8.73    0.61
   2   1   4   46.29    2.67
  -2  -1  -4   36.83    2.54
   2  -1   4   42.08    2.65
   2   1   4   47.44    2.40
   2  -1   4   39.04    2.42
  -2   1  -4   39.57    2.68
  -2  -1  -4   41.30    2.69
  -2   1  -4   39.24    2.53
  -3  -1  -4   17.71    1.38
  -3  -1  -4   18.12    1.26
   3  -1   4   18.81    1.24
  -3   1  -4   16.11    1.36
   3  -1   4   21.82    1.38
   3   1   4   20.52    1.37
  -3   1  -4   20.48    1.23
   3   1   4   21.61    1.20
  -4   1  -4   80.83    5.25
   4   1   4   91.75    4.69
  -4  -1  -4   69.42    5.22
   4   1   4   75.75    5.18
  -4  -1  -4   86.98    4.96
   4  -1   4   85.99    5.20
   4  -1   4   77.76    4.70
   5   1   4   20.85    1.66
   5   1   4   23.77    1.47
  -5  -1  -4   21.98    1.72
   5  -1   4   24.30    1.67
  -5   1  -4   22.08    1.69
   5  -1   4   22.40    1.50
   6   1   4   55.04    3.82
  -6   1  -4   55.37    3.87
   6  -1   4   56.68    3.82
  -6  -1  -4   61.64    3.94
   6  -1   4   57.87    3.47
   7  -1   4    2.35    0.50
   7  -1   4    2.94    0.65
  -7  -1  -4    3.34    0.68
  -7   1  -4    2.72    0.63
   7   1   4    2.17    0.61
   8   1   4    2.85    0.74
   8  -1   4    2.54    0.71
  -8   1  -4    3.32    0.76
  -8  -1  -4    3.49    0.78
  -9   1  -4    0.19    0.61
   9   1   4   -0.59    0.58
   9  -1   4    0.46    0.67
  -9  -1  -4    0.03    0.60
   9   2  -4    0.62    0.55
  -9  -2   4    0.34    0.56
  -9   2   4    0.60    0.60
   8  -2  -4    3.14    0.60
  -8  -2   4    3.75    0.75
   8   2  -4    5.59    0.89
  -8   2   4    4.54    0.81
  -8   2   4    4.62    0.80
  -7   2   4    2.30    0.62
   7   2  -4    3.77    0.75
  -7   2   4    2.06    0.59
  -7  -2   4    2.76    0.61
   7  -2  -4    2.71    0.49
   6   2  -4    2.77    0.40
  -6   2   4    2.62    0.55
   6  -2  -4    1.87    0.44
  -6  -2   4    2.09    0.50
  -6   2   4    1.90    0.52
  -5  -2   4    4.70    0.54
   5   2  -4    6.22    0.53
  -5  -2   4    6.24    0.67
   5  -2  -4    6.70    0.62
  -5   2   4    4.90    0.64
  -5   2   4    6.24    0.73
   4  -2  -4   98.38    5.97
  -4   2   4  105.86    6.57
   4  -2  -4  103.16    6.24
   4   2  -4  111.85    5.93
  -4  -2   4  100.63    6.31
  -4   2   4   98.27    6.58
  -4  -2   4  109.09    6.59
  -4  -2   4  103.56    6.58
  -3   2   4    1.31    0.30
   3  -2  -4    1.67    0.28
  -3  -2   4    1.51    0.27
  -3  -2   4    1.35    0.26
  -3   2   4    1.64    0.29
   3  -2  -4    1.36    0.19
  -3  -2   4    1.08    0.20
  -3  -2   4    0.99    0.34
  -2  -2   4   43.63    3.00
   2  -2  -4   43.85    2.74
   2  -2  -4   45.09    2.87
  -2   2   4   45.96    2.99
  -2   2   4   54.18    3.03
  -2  -2   4   47.44    2.92
  -2  -2   4   49.95    2.71
  -1  -2   4  306.93   17.41
   1   2  -4  347.62   19.26
  -1   2   4  278.53   17.41
  -1   2   4  341.91   19.22
  -1  -2   4  303.73   18.57
   1  -2  -4  289.20   18.55
   0   2   4   13.81    0.88
   0  -2  -4   14.14    0.94
   0  -2  -4   14.79    0.97
   0  -2   4   14.79    0.97
   0   2  -4   16.28    0.99
   0  -2   4   13.18    0.90
   0   2   4   15.21    0.98
   1  -2   4    3.97    0.36
  -1  -2  -4    3.86    0.34
   1   2   4    4.51    0.42
  -1  -2  -4    3.65    0.35
   1   2   4    3.49    0.28
  -1   2  -4    3.35    0.34
  -1   2  -4    3.70    0.32
   2  -2   4    2.06    0.31
   2   2   4    2.32    0.23
   2  -2   4    1.66    0.28
  -2  -2  -4    2.17    0.27
  -2   2  -4    2.34    0.24
   2   2   4    3.17    0.38
  -2   2  -4    2.20    0.31
  -2  -2  -4    3.12    0.36
  -3  -2  -4  171.33   11.07
  -3   2  -4  198.04   11.03
   3  -2   4  166.98   10.43
  -3  -2  -4  177.64   11.57
   3   2   4  181.53   11.50
   3   2   4  210.96   10.38
  -3   2  -4  188.03   11.56
   3  -2   4  181.81   11.49
  -4   2  -4   47.52    3.11
  -4  -2  -4   43.59    3.14
   4   2   4   44.49    3.08
   4  -2   4   45.75    2.82
  -4  -2  -4   49.03    2.94
   4  -2   4   47.00    3.09
   4   2   4   50.04    2.74
   5   2   4    8.85    0.90
   5  -2   4    8.31    0.79
   5   2   4    9.76    0.74
  -5  -2  -4    8.62    0.97
  -5   2  -4    9.31    0.89
   5  -2   4    8.78    0.91
  -5  -2  -4   11.02    0.77
   6   2   4    0.06    0.39
  -6   2  -4    0.55    0.37
   6  -2   4   -0.44    0.28
   6  -2   4   -0.19    0.41
  -6  -2  -4   -0.09    0.33
   7   2   4    3.17    0.68
  -7   2  -4    3.86    0.67
   7  -2   4    2.72    0.63
  -7  -2  -4    3.33    0.70
   7  -2   4    2.41    0.54
   8   2   4    2.41    0.68
  -8  -2  -4    2.40    0.64
   8  -2   4    2.46    0.65
  -8   2  -4    3.39    0.73
  -9   2  -4    0.87    0.71
  -9  -2  -4    0.05    0.64
   9   2   4   -0.94    0.54
   9  -2   4   -0.72    0.63
  -9   3   4    7.29    1.10
   9  -3  -4    6.19    0.85
   9   3  -4    5.89    1.01
  -9  -3   4    6.16    1.05
  -8  -3   4    1.79    0.57
   8   3  -4    0.80    0.56
   8  -3  -4    1.68    0.48
  -8   3   4    1.25    0.51
  -8   3   4    1.32    0.58
   7   3  -4   22.22    1.72
  -7   3   4   19.10    1.60
  -7   3   4   20.94    1.65
   7  -3  -4   18.18    1.45
  -7  -3   4   19.28    1.59
   6   3  -4   28.90    2.01
  -6  -3   4   26.70    1.94
  -6   3   4   24.98    1.93
   6  -3  -4   23.72    1.76
  -6   3   4   27.02    1.94
  -5   3   4   27.15    2.00
  -5  -3   4   32.11    2.03
  -5  -3   4   29.38    1.91
   5  -3  -4   27.38    1.86
   5   3  -4   24.49    2.03
   5   3  -4   31.80    1.78
  -5   3   4   28.11    2.01
   4  -3  -4   23.65    1.59
   4  -3  -4   23.54    1.64
   4   3  -4   28.86    1.58
  -4   3   4   24.93    1.78
  -4   3   4   23.36    1.77
  -4  -3   4   25.88    1.71
  -4  -3   4   30.80    1.81
  -3  -3   4    0.51    0.21
   3  -3  -4    0.31    0.18
   3  -3  -4    0.71    0.15
  -3   3   4    0.64    0.22
  -3  -3   4    0.73    0.22
  -3  -3   4    0.36    0.13
  -3   3   4    1.11    0.28
  -2   3   4   23.15    1.67
  -2  -3   4   29.40    1.71
   2  -3  -4   23.72    1.57
  -2  -3   4   27.92    1.53
  -2  -3   4   25.32    1.67
   2  -3  -4   24.95    1.62
  -2   3   4   26.16    1.73
  -1   3   4   12.87    0.81
   1   3  -4   11.90    0.79
   1  -3  -4   10.09    0.76
   1  -3  -4   10.64    0.72
  -1  -3   4   11.34    0.80
  -1   3   4    9.40    0.73
  -1  -3   4   12.55    0.72
   0  -3   4  118.36    6.91
   0  -3  -4  111.83    6.90
   0  -3   4  113.44    6.47
   0   3   4  100.21    7.10
   0   3  -4  123.13    7.15
   0   3   4  117.82    6.46
   0   3   4  118.63    7.13
  -1  -3  -4   10.59    0.79
   1  -3   4   11.71    0.78
  -1   3  -4   12.72    0.83
   1   3   4   12.00    0.86
  -1  -3  -4   11.14    0.79
   1  -3   4   10.75    0.75
   1   3   4   10.32    0.68
   2   3   4   80.56    5.09
  -2  -3  -4   79.29    5.12
  -2   3  -4   81.73    4.88
   2  -3   4   79.55    4.64
  -2  -3  -4   78.66    4.93
  -2   3  -4   79.02    5.11
   2   3   4   86.17    4.55
  -3  -3  -4  131.30    8.62
  -3   3  -4  146.71    8.19
  -3  -3  -4  128.75    8.26
   3   3   4  133.45    8.57
   3  -3   4  129.09    7.80
   3   3   4  150.87    7.69
  -3   3  -4  136.25    8.61
   4   3   4   29.06    2.09
  -4  -3  -4   29.94    1.98
  -4  -3  -4   27.52    2.11
   4   3   4   33.05    1.81
   4  -3   4   29.24    1.92
  -4   3  -4   32.66    2.12
   5   3   4   17.07    1.33
   5  -3   4   13.07    1.17
   5  -3   4   14.34    1.30
  -5   3  -4   18.40    1.33
  -5  -3  -4   19.36    1.22
  -5  -3  -4   17.74    1.37
   6  -3   4    1.49    0.45
  -6   3  -4    2.58    0.54
   6  -3   4    2.01    0.57
  -6  -3  -4    2.50    0.59
   6   3   4    1.84    0.55
  -7   3  -4   13.36    1.22
   7   3   4   12.78    1.21
   7  -3   4   12.96    1.21
  -7  -3  -4   14.85    1.30
   7  -3   4   12.97    1.12
  -8  -3  -4    2.54    0.64
   8  -3   4    1.84    0.61
   8   3   4    0.89    0.57
  -8   3  -4    2.64    0.65
   8  -3   4    1.53    0.51
   9  -3   4    2.57    0.91
  -9  -3  -4    4.00    0.78
  -9   3  -4    4.53    0.95
   9  -4  -4   19.74    1.63
  -9  -4   4   21.85    1.85
   9   4  -4   20.71    1.79
  -9   4   4   21.01    1.82
  -9   4   4   17.58    1.72
   8  -4  -4    1.22    0.43
  -8   4   4   -0.11    0.53
   8   4  -4    1.95    0.65
  -8   4   4    1.13    0.53
  -8  -4   4    1.84    0.60
   7  -4  -4    4.98    0.71
  -7  -4   4    7.44    0.88
  -7   4   4    5.62    0.82
   7   4  -4    7.18    0.94
  -7   4   4    5.01    0.80
  -6   4   4    5.08    0.73
  -6   4   4    5.45    0.69
   6   4  -4    5.53    0.79
   6  -4  -4    4.87    0.64
  -6  -4   4    5.68    0.73
   5   4  -4   17.84    1.42
  -5   4   4   16.81    1.36
   5  -4  -4   16.37    1.27
  -5  -4   4   19.25    1.31
  -5  -4   4   21.03    1.40
   5   4  -4   18.53    1.18
  -5   4   4   16.74    1.38
   4  -4  -4    4.14    0.49
  -4  -4   4    3.60    0.46
   4   4  -4    3.35    0.52
  -4   4   4    4.90    0.52
  -4  -4   4    4.89    0.52
  -4   4   4    3.40    0.49
  -3   4   4   19.91    1.40
  -3   4   4   17.85    1.35
   3  -4  -4   19.55    1.27
  -3  -4   4   20.00    1.20
   3  -4  -4   19.71    1.30
  -3  -4   4   19.42    1.37
  -3  -4   4   23.76    1.41
   3   4  -4   18.62    1.38
  -2  -4   4    0.58    0.22
  -2  -4   4    0.67    0.19
  -2   4   4    1.03    0.19
  -2  -4   4    1.22    0.17
  -2   4   4    1.16    0.27
   2  -4  -4    0.91    0.18
   2  -4  -4    1.08    0.22
  -1  -4   4   76.65    4.70
  -1   4   4   68.17    4.78
   1  -4  -4   78.00    4.39
   1  -4  -4   77.36    4.67
  -1   4   4   76.18    4.84
   1   4  -4   81.00    4.84
  -1  -4   4   80.77    4.37
   0  -4   4    0.65    0.21
   0  -4  -4    0.60    0.14
   0  -4   4    0.75    0.17
   0  -4  -4    0.25    0.18
   0   4  -4    0.98    0.22
   0   4   4    1.45    0.25
   0   4   4    0.75    0.16
  -1  -4  -4   67.99    4.50
   1  -4   4   70.30    4.36
   1  -4   4   68.45    4.11
  -1   4  -4   77.38    4.54
   1   4   4   73.95    4.52
   1   4   4   69.90    4.04
  -1  -4  -4   73.24    4.39
  -2   4  -4   37.55    2.33
  -2  -4  -4   35.89    2.26
  -2  -4  -4   34.00    2.31
   2   4   4   34.70    2.33
   2  -4   4   35.51    2.14
   2  -4   4   34.60    2.19
  -3   4  -4  401.34   23.56
  -3  -4  -4  382.41   24.57
  -3   4  -4  428.24   24.58
   3  -4   4  394.26   22.23
  -3  -4  -4  400.07   23.65
   3   4   4  368.46   24.47
  -4  -4  -4   49.73    3.13
  -4   4  -4   55.49    3.30
  -4  -4  -4   45.89    3.28
   4  -4   4   48.80    3.00
   4   4   4   47.45    3.25
  -5   4  -4    4.08    0.59
   5  -4   4    4.59    0.58
  -5  -4  -4    3.97    0.50
  -5  -4  -4    3.42    0.58
   5   4   4    4.38    0.68
  -6   4  -4   17.92    1.38
   6  -4   4   16.59    1.39
   6   4   4   16.60    1.40
  -6  -4  -4   15.52    1.39
   6  -4   4   16.77    1.30
   7  -4   4   -0.01    0.43
   7  -4   4   -0.06    0.37
   7   4   4    0.81    0.49
  -7  -4  -4   -0.01    0.43
  -7   4  -4    0.14    0.33
  -8  -4  -4    7.01    0.96
  -8   4  -4    6.12    0.93
   8  -4   4    7.18    0.97
   8   4   4    8.86    1.06
   8  -4   4    6.51    0.85
   9  -4   4   -0.23    0.59
  -9   4  -4    0.11    0.61
  -9  -5   4   -0.01    0.70
   9  -5  -4    0.18    0.42
  -9   5   4    0.18    0.58
   9   5  -4   -0.02    0.60
  -8   5   4    6.46    0.92
  -8   5   4    5.19    0.86
   8   5  -4    5.73    0.94
   8  -5  -4    3.89    0.73
  -8  -5   4    5.52    0.88
  -7  -5   4    6.92    0.91
  -7   5   4    7.46    0.93
   7  -5  -4    6.80    0.82
  -7   5   4    8.28    0.92
   7   5  -4    7.59    1.01
  -6   5   4    6.88    0.76
   6  -5  -4    5.15    0.68
  -6  -5   4    5.58    0.77
   6   5  -4    6.78    0.83
  -6   5   4    7.03    0.85
  -6  -5   4    5.54    0.66
   5   5  -4    0.94    0.41
  -5   5   4    0.83    0.38
  -5   5   4    1.00    0.34
  -5  -5   4    0.84    0.32
   5  -5  -4    0.30    0.26
  -5  -5   4    0.82    0.35
  -4  -5   4    1.19    0.33
  -4  -5   4    1.74    0.36
  -4  -5   4    1.40    0.22
   4  -5  -4    1.34    0.33
  -4   5   4    1.41    0.36
   4   5  -4    1.47    0.37
  -4   5   4    2.17    0.35
  -3   5   4   -0.03    0.18
  -3  -5   4    0.19    0.20
   3  -5  -4   -0.12    0.13
  -3  -5   4   -0.05    0.09
  -3   5   4    0.20    0.16
   3  -5  -4   -0.02    0.13
   3   5  -4   -0.07    0.17
  -3  -5   4    0.22    0.18
   2   5  -4   10.34    0.76
  -2   5   4    9.43    0.76
  -2  -5   4    9.70    0.62
   2  -5  -4    8.39    0.68
  -2  -5   4    9.90    0.76
  -2   5   4    8.77    0.69
   2  -5  -4    9.66    0.71
  -1   5   4    1.58    0.29
   1  -5  -4    0.91    0.22
  -1  -5   4    1.18    0.18
   1  -5  -4    1.01    0.20
   1   5  -4    1.29    0.24
  -1   5   4    1.37    0.20
  -1  -5   4    0.92    0.26
   0  -5   4   67.50    4.08
   0   5   4   64.21    4.19
   0   5  -4   72.24    4.21
   0  -5  -4   67.29    3.78
   0  -5   4   65.84    3.81
   0  -5  -4   65.13    4.07
   0   5   4   61.57    4.15
   1  -5   4    0.83    0.21
  -1  -5  -4    0.73    0.19
  -1  -5  -4    0.88    0.24
  -1   5  -4    0.93    0.23
   1   5   4    0.80    0.28
  -1  -5  -4    0.80    0.13
   1  -5   4    0.66    0.21
  -2  -5  -4    1.87    0.32
  -2  -5  -4    2.03    0.34
  -2   5  -4    1.85    0.31
   2   5   4    2.23    0.38
   2  -5   4    2.18    0.32
   2  -5   4    1.95    0.27
   3  -5   4    5.58    0.57
  -3  -5  -4    5.17    0.54
  -3  -5  -4    5.19    0.55
   3   5   4    6.45    0.65
  -3   5  -4    5.87    0.58
  -4   5  -4   18.18    1.18
   4   5   4   12.91    1.16
  -4  -5  -4   15.02    1.16
  -4   5  -4   15.64    1.14
  -4  -5  -4   14.92    1.12
   4  -5   4   11.78    1.07
   5   5   4    2.56    0.57
   5  -5   4    3.06    0.53
  -5   5  -4    3.23    0.52
  -5  -5  -4    3.18    0.47
  -5  -5  -4    3.62    0.56
  -6  -5  -4    3.75    0.66
   6  -5   4    4.20    0.61
  -6   5  -4    4.05    0.63
   6   5   4    3.44    0.71
  -7  -5  -4    0.16    0.36
   7  -5   4   -0.20    0.42
   7   5   4   -0.21    0.46
   7  -5   4    0.18    0.35
  -7   5  -4   -0.14    0.33
   8   5   4   -0.19    0.49
  -8   5  -4    0.80    0.51
   8  -5   4    0.20    0.50
  -8  -5  -4    0.34    0.42
   8  -5   4    0.44    0.44
   9  -5   4    0.18    0.66
   9  -6  -4    0.60    0.46
   9   6  -4    0.95    0.69
   8  -6  -4    1.18    0.48
  -8  -6   4    0.90    0.57
  -8   6   4    0.43    0.50
   8   6  -4    1.23    0.67
  -7  -6   4    0.76    0.47
   7  -6  -4    1.26    0.44
   7   6  -4    1.10    0.59
  -7   6   4    0.62    0.43
  -7   6   4    0.98    0.48
  -6  -6   4   -0.28    0.32
  -6   6   4    0.55    0.36
   6   6  -4   -0.31    0.37
   6  -6  -4   -0.26    0.26
  -6  -6   4    0.38    0.38
  -6   6   4   -0.09    0.36
   5   6  -4    3.14    0.56
  -5   6   4    2.99    0.54
  -5   6   4    2.75    0.47
   5  -6  -4    2.15    0.44
  -5  -6   4    2.36    0.45
  -5  -6   4    3.23    0.51
  -4   6   4   15.97    1.31
  -4  -6   4   17.88    1.32
  -4  -6   4   17.66    1.31
   4   6  -4   17.62    1.32
   4  -6  -4   18.32    1.27
  -4   6   4   18.27    1.29
  -3   6   4    4.63    0.52
   3   6  -4    3.89    0.46
   3  -6  -4    3.60    0.38
  -3   6   4    3.89    0.43
   3  -6  -4    3.49    0.44
  -3  -6   4    3.06    0.31
  -3  -6   4    3.65    0.47
  -3  -6   4    4.04    0.50
  -2   6   4   20.94    1.52
  -2   6   4   24.14    1.47
  -2  -6   4   21.67    1.32
  -2  -6   4   21.63    1.52
   2   6  -4   25.06    1.54
   2  -6  -4   20.17    1.40
   2  -6  -4   19.49    1.43
  -1  -6   4  204.79   11.94
  -1   6   4  197.42   12.31
   1   6  -4  204.12   12.34
   1  -6  -4  201.27   11.90
  -1   6   4  180.63   12.28
  -1  -6   4  191.74   11.13
   1  -6  -4  206.71   11.17
   0  -6   4   14.10    1.02
   0   6  -4   14.95    1.03
   0  -6   4   13.11    0.92
   0   6   4   14.27    1.03
   0  -6  -4   13.05    1.01
   0  -6  -4   14.27    0.90
   1   6   4    5.26    0.56
   1  -6   4    6.12    0.50
   1  -6   4    4.81    0.49
  -1  -6  -4    5.05    0.52
  -1  -6  -4    5.45    0.38
   1   6   4    4.54    0.48
  -1   6  -4    5.75    0.52
  -2  -6  -4    2.91    0.41
   2  -6   4    2.16    0.33
   2   6   4    3.68    0.48
   2  -6   4    2.38    0.38
  -2  -6  -4    3.27    0.40
  -2   6  -4    3.72    0.44
  -3  -6  -4    3.09    0.46
  -3  -6  -4    4.33    0.50
   3   6   4    4.35    0.55
   3  -6   4    3.44    0.48
  -3   6  -4    4.25    0.51
   3  -6   4    3.64    0.37
  -4   6  -4   12.20    0.96
  -4  -6  -4   11.80    0.97
  -4  -6  -4   11.63    0.96
   4   6   4    9.80    0.99
   4  -6   4   13.33    1.00
  -4   6  -4   12.20    0.98
  -5   6  -4    1.48    0.43
  -5  -6  -4    1.84    0.41
  -5  -6  -4    2.17    0.45
   5  -6   4    1.21    0.44
   5   6   4    2.08    0.55
  -5   6  -4    2.26    0.49
   6  -6   4    3.37    0.61
  -6   6  -4    3.14    0.58
   6   6   4    3.03    0.67
  -6  -6  -4    4.03    0.63
   7  -6   4    1.69    0.52
   7  -6   4    1.71    0.63
  -7  -6  -4    2.40    0.57
   7   6   4    2.15    0.64
  -7   6  -4    1.99    0.54
  -8  -6  -4    0.82    0.43
  -8   6  -4    0.12    0.45
   8   6   4    0.28    0.52
   8  -6   4    0.31    0.56
   8  -6   4    0.66    0.44
   9  -6   4    2.40    0.86
   9  -6   4    1.29    0.59
   8   7  -4    1.61    0.69
   8  -7  -4    0.75    0.46
  -8  -7   4    1.05    0.58
  -8   7   4    0.78    0.49
   7   7  -4    3.10    0.71
  -7   7   4    2.78    0.61
  -7  -7   4    2.88    0.61
   7  -7  -4    3.74    0.64
  -7   7   4    3.17    0.63
  -6  -7   4    2.04    0.50
  -6   7   4    2.78    0.52
  -6  -7   4    1.48    0.46
  -6   7   4    1.47    0.53
   6  -7  -4    1.24    0.43
   6   7  -4    0.76    0.51
   5   7  -4    0.69    0.39
  -5  -7   4    0.55    0.34
   5  -7  -4    0.36    0.30
  -5   7   4    0.30    0.34
  -5  -7   4    0.05    0.28
  -5   7   4    0.62    0.29
  -4   7   4    4.68    0.51
   4   7  -4    3.87    0.56
  -4  -7   4    4.37    0.58
   4  -7  -4    3.93    0.54
  -4  -7   4    3.46    0.54
  -4   7   4    3.89    0.57
  -3  -7   4    3.07    0.31
  -3   7   4    3.89    0.45
   3   7  -4    3.50    0.50
   3  -7  -4    4.24    0.49
  -3   7   4    4.18    0.52
  -3  -7   4    3.44    0.52
   3  -7  -4    3.93    0.42
  -2  -7   4   -0.02    0.22
   2   7  -4    0.10    0.21
   2  -7  -4   -0.15    0.14
  -2   7   4    0.07    0.20
  -2   7   4   -0.07    0.15
   2  -7  -4    0.10    0.18
  -2  -7   4    0.08    0.12
  -1   7   4    0.55    0.20
   1  -7  -4    0.36    0.19
  -1  -7   4    0.48    0.26
   1   7  -4    0.54    0.23
  -1   7   4    0.69    0.27
   1  -7  -4    0.78    0.24
  -1  -7   4    0.58    0.17
   0   7   4    9.35    0.82
   0  -7  -4    9.52    0.82
   0  -7   4   10.11    0.84
   0   7   4   10.28    0.77
   0  -7  -4   10.32    0.71
   0  -7   4   11.83    0.76
   1  -7   4    4.64    0.51
  -1  -7  -4    4.43    0.54
  -1  -7  -4    4.50    0.38
  -1   7  -4    5.57    0.53
   1   7   4    6.47    0.52
   1  -7   4    4.33    0.47
   1   7   4    5.46    0.58
  -2  -7  -4   22.31    1.55
  -2  -7  -4   22.21    1.55
   2  -7   4   22.51    1.49
  -2   7  -4   22.61    1.57
   2   7   4   21.33    1.57
   2  -7   4   21.51    1.45
   3  -7   4   38.98    2.37
  -3  -7  -4   38.57    2.52
   3   7   4   37.93    2.53
  -3  -7  -4   38.50    2.49
   3  -7   4   36.09    2.35
  -3   7  -4   33.93    2.51
   4   7   4   11.21    0.99
  -4   7  -4   11.33    0.94
   4  -7   4   10.34    0.94
  -4  -7  -4   10.40    0.92
  -4  -7  -4   10.73    0.94
  -5   7  -4    4.50    0.63
  -5   7  -4    3.55    0.56
  -5  -7  -4    2.74    0.55
   5  -7   4    2.90    0.57
   5   7   4    3.44    0.62
  -5  -7  -4    4.21    0.59
  -6   7  -4    0.84    0.45
   6  -7   4    0.75    0.43
   6   7   4    0.27    0.45
  -6  -7  -4    1.38    0.43
  -6   7  -4    0.45    0.38
  -6  -7  -4    1.17    0.42
  -7   7  -4   11.42    1.10
   7  -7   4   12.50    1.13
   7   7   4   10.32    1.14
  -7  -7  -4   11.25    1.08
  -8  -7  -4    4.24    0.69
   8  -7   4    2.97    0.66
  -8   7  -4    1.93    0.65
   8   7   4    1.94    0.71
  -8  -8   4   14.70    1.38
  -8   8   4   13.08    1.29
   8  -8  -4   13.32    1.29
   8   8  -4   14.76    1.41
   7  -8  -4    0.71    0.43
  -7  -8   4    1.60    0.52
  -7   8   4    1.17    0.50
   7   8  -4    0.74    0.58
   6  -8  -4   14.01    1.23
  -6  -8   4   15.37    1.29
  -6   8   4   16.24    1.24
   6   8  -4   13.77    1.27
  -6  -8   4   15.52    1.25
  -6   8   4   12.38    1.23
  -5  -8   4   19.17    1.35
   5   8  -4   15.22    1.29
  -5  -8   4   15.10    1.29
   5  -8  -4   16.37    1.27
  -5   8   4   17.24    1.29
  -5   8   4   15.61    1.31
   4   8  -4   10.65    1.01
  -4   8   4   12.77    1.00
  -4  -8   4   13.49    1.11
   4  -8  -4   13.84    1.05
  -4   8   4   13.58    1.09
   3  -8  -4   72.63    4.37
   3   8  -4   71.70    4.59
  -3  -8   4   73.06    4.49
  -3   8   4   68.02    4.56
  -3   8   4   65.59    4.51
   3  -8  -4   73.35    4.21
   2   8  -4   14.52    1.13
  -2   8   4   14.37    1.08
   2  -8  -4   15.73    1.10
   2  -8  -4   15.61    1.07
  -2  -8   4   15.12    1.18
  -2   8   4   14.62    1.14
  -2  -8   4   14.82    0.95
   1  -8  -4  107.17    5.92
   1  -8  -4  104.65    6.32
  -1  -8   4   99.88    5.87
  -1   8   4  101.98    6.48
  -1  -8   4  107.09    6.36
   1   8  -4   95.81    6.52
  -1   8   4  104.66    6.52
   0  -8   4   28.63    1.69
   0  -8   4   28.12    1.85
   0  -8  -4   26.72    1.83
   0   8  -4   24.75    1.84
   0  -8  -4   28.10    1.66
   0   8   4   26.51    1.85
   0   8   4   26.07    1.81
   1  -8   4    0.13    0.21
   1  -8   4   -0.12    0.21
   1   8   4    0.04    0.23
   1   8   4    0.31    0.19
  -1  -8  -4    0.17    0.14
  -1   8  -4    0.35    0.24
  -1  -8  -4    0.22    0.24
  -2  -8  -4   47.34    3.07
   2  -8   4   47.30    2.99
   2   8   4   45.33    3.12
   2  -8   4   49.95    2.89
  -2   8  -4   46.86    3.13
   3   8   4  152.03   10.00
  -3  -8  -4  173.83    9.75
  -3  -8  -4  144.40   10.02
   3  -8   4  171.86    9.18
  -3   8  -4  156.54   10.05
  -4   8  -4    8.44    0.83
   4   8   4    9.66    0.98
  -4  -8  -4    8.41    0.84
  -4  -8  -4    8.31    0.80
   4  -8   4    9.41    0.89
  -5  -8  -4    3.67    0.59
  -5   8  -4    4.14    0.62
   5   8   4    4.15    0.70
  -5  -8  -4    3.75    0.62
   5  -8   4    3.86    0.65
  -6  -8  -4    3.48    0.58
  -6  -8  -4    3.71    0.62
  -6   8  -4    3.20    0.60
   6   8   4    2.56    0.65
   6  -8   4    2.86    0.59
   7   8   4    0.63    0.55
   7  -8   4    0.69    0.44
  -7   8  -4    0.01    0.35
  -7  -8  -4    0.41    0.36
   8  -8   4    2.90    0.68
  -8   8  -4    1.96    0.67
   8   8   4    2.40    0.77
  -8  -8  -4    2.73    0.65
   8   9  -4   -0.07    0.65
   8  -9  -4   -0.07    0.39
  -8   9   4    0.79    0.44
  -8  -9   4   -0.20    0.55
  -7   9   4    2.04    0.60
   7  -9  -4    2.04    0.60
   7   9  -4    3.60    0.74
  -7  -9   4    3.09    0.67
  -6  -9   4   22.92    1.66
   6   9  -4   18.69    1.62
   6  -9  -4   20.32    1.58
  -6  -9   4   20.62    1.61
  -6   9   4   19.66    1.61
  -5   9   4    8.13    0.99
  -5  -9   4   11.43    0.98
  -5  -9   4   12.89    1.08
   5   9  -4   12.80    1.00
  -5   9   4    9.13    0.93
   5  -9  -4    7.95    0.94
  -4   9   4    0.16    0.28
  -4   9   4    0.11    0.31
   4  -9  -4    0.14    0.28
   4   9  -4    0.05    0.31
  -4  -9   4    0.32    0.36
  -3  -9   4    1.38    0.44
   3  -9  -4    0.66    0.32
   3   9  -4    1.57    0.42
   3  -9  -4    0.84    0.30
  -2   9   4    2.56    0.38
   2  -9  -4    1.66    0.37
   2  -9  -4    1.01    0.31
  -2   9   4    1.74    0.38
   2   9  -4    1.71    0.38
  -1  -9   4   20.79    1.27
   1  -9  -4   17.54    1.41
  -1   9   4   22.76    1.47
  -1  -9   4   16.99    1.44
   1  -9  -4   20.18    1.32
   1   9  -4   17.58    1.42
  -1   9   4   22.11    1.41
   0  -9  -4   32.61    2.00
   0  -9   4   36.59    2.25
   0   9   4   30.46    2.22
   0  -9  -4   32.51    2.21
   0  -9   4   36.21    2.04
   0   9   4   29.97    2.18
  -1   9  -4    0.74    0.26
  -1  -9  -4   -0.28    0.26
   1  -9   4    0.78    0.26
   1   9   4    0.04    0.20
   1   9   4    0.24    0.24
   2   9   4   23.42    1.64
   2  -9   4   25.80    1.61
  -2  -9  -4   20.93    1.65
  -2   9  -4   22.26    1.65
   2  -9   4   23.42    1.55
   2   9   4   19.81    1.65
  -3  -9  -4    4.34    0.64
  -4  -9  -4   21.15    1.53
   4  -9   4   19.32    1.45
   4   9   4   17.76    1.49
  -4  -9  -4   18.42    1.46
  -4   9  -4   18.92    1.48
  -5   9  -4   16.22    1.27
   5   9   4   15.43    1.33
  -5  -9  -4   15.41    1.31
   5  -9   4   15.03    1.27
  -5  -9  -4   13.39    1.22
  -6  -9  -4    2.49    0.51
   6  -9   4    2.38    0.58
  -6   9  -4    1.98    0.54
  -6  -9  -4    2.28    0.58
   6   9   4    2.99    0.68
  -7   9  -4    2.69    0.63
  -7  -9  -4    3.13    0.57
   7  -9   4    2.19    0.61
   7   9   4    1.87    0.67
   8  -9   4    0.98    0.57
  -8   9  -4    1.76    0.67
  -8  10   4    1.49    0.56
   7 -10  -4    0.94    0.46
  -7  10   4    0.41    0.44
  -7 -10   4    3.37    0.73
  -6  10   4    8.95    0.99
  -6 -10   4   10.70    1.08
   6 -10  -4   10.61    1.08
  -5 -10   4    1.91    0.56
   5  10  -4    2.15    0.59
   5 -10  -4    1.59    0.47
  -5  10   4    2.21    0.53
  -4 -10   4    3.30    0.62
   4  10  -4    2.79    0.57
   4 -10  -4    1.74    0.48
  -3  10   4   30.09    1.97
  -3  10   4   27.51    2.00
  -3 -10   4   29.13    2.08
   3 -10  -4   25.53    1.89
   3  10  -4   28.55    2.03
  -2  10   4    0.34    0.30
   2 -10  -4    0.26    0.24
   2  10  -4    0.50    0.31
   2 -10  -4    0.36    0.28
  -2  10   4    0.48    0.29
  -2 -10   4    0.34    0.36
   1 -10  -4    2.26    0.45
  -1  10   4    2.26    0.47
   1 -10  -4    2.79    0.41
   0  10  -4   15.76    1.29
   0  10   4   19.41    1.29
   0 -10  -4   15.84    1.15
   0 -10   4   17.32    1.33
   0  10   4   19.30    1.33
   0 -10  -4   15.65    1.31
   0 -10   4   17.04    1.17
   1 -10   4   28.19    1.83
  -1 -10  -4   26.32    2.00
   1  10   4   31.97    1.99
  -1  10  -4   24.98    1.97
   1 -10   4   28.01    1.96
   1  10   4   29.92    1.97
  -2 -10  -4    4.26    0.65
   3  10   4   15.75    1.23
   3 -10   4   15.32    1.20
  -3 -10  -4   12.47    1.26
  -3  10  -4   16.12    1.25
   4  10   4   17.23    1.30
  -4 -10  -4   12.57    1.24
  -4 -10  -4   13.86    1.21
  -4  10  -4   13.44    1.19
   4 -10   4   14.76    1.21
   5 -10   4    8.72    0.97
  -5  10  -4    7.86    0.88
   5  10   4   10.40    1.06
  -5 -10  -4    8.20    0.98
  -5 -10  -4   12.00    0.97
  -6 -10  -4    0.71    0.37
   6 -10   4    0.45    0.45
  -6  10  -4    0.65    0.41
   6  10   4    0.09    0.49
  -6 -10  -4    0.13    0.42
   7 -10   4   -0.44    0.40
   7  10   4   -0.29    0.56
  -7 -10  -4    0.53    0.38
  -7  10  -4   -0.08    0.44
  -7  11   4   -0.05    0.48
  -7 -11   4    1.90    0.71
   7 -11  -4    0.64    0.49
  -6 -11   4    9.17    1.06
   6 -11  -4    7.14    0.94
  -6  11   4    9.44    1.03
   6  11  -4    8.51    1.05
  -5 -11   4    5.82    0.86
   5  11  -4    6.69    0.91
   5 -11  -4    6.38    0.83
  -5  11   4    7.34    0.88
  -4 -11   4   17.82    1.46
  -4  11   4   15.77    1.36
   4  11  -4   15.01    1.37
   4 -11  -4   20.05    1.39
  -3 -11   4    1.10    0.53
  -3  11   4    2.36    0.48
   3  11  -4    1.65    0.47
   3 -11  -4    1.43    0.43
  -3  11   4    2.54    0.47
  -2  11   4    2.25    0.45
  -2 -11   4    1.97    0.53
  -2  11   4    2.77    0.49
   2 -11  -4    3.08    0.49
   2  11  -4    3.31    0.58
   2 -11  -4    2.90    0.49
   1  11  -4   30.92    2.34
   1 -11  -4   35.02    2.16
  -1  11   4   33.02    2.34
  -1 -11   4   35.69    2.40
  -1  11   4   33.75    2.32
   1 -11  -4   36.08    2.34
   0 -11   4    0.01    0.30
   0  11   4   -0.33    0.26
   0 -11  -4   -0.24    0.27
   0  11   4    0.44    0.28
   0  11  -4    0.60    0.35
   0 -11   4    0.22    0.23
   1  11   4    0.92    0.41
   1 -11   4    0.98    0.39
  -1  11  -4    1.27    0.39
  -1 -11  -4    0.15    0.36
   1 -11   4    1.02    0.34
   1  11   4    0.99    0.38
   2  11   4   49.90    3.20
   2 -11   4   49.38    2.95
   2  11   4   47.33    3.19
  -2 -11  -4   50.26    3.20
  -2  11  -4   47.18    3.20
   2 -11   4   40.65    3.07
  -3 -11  -4    4.43    0.67
   3  11   4    3.77    0.67
   3  11   4    4.57    0.66
  -3  11  -4    3.39    0.59
   3 -11   4    3.14    0.56
   4  11   4   15.12    1.37
  -4 -11  -4   17.34    1.39
  -4  11  -4   16.80    1.35
   4 -11   4   15.70    1.31
   5  11   4    8.85    1.05
  -5  11  -4    8.06    0.85
  -5 -11  -4    7.85    0.93
  -5 -11  -4    7.75    0.90
   5 -11   4    8.38    0.95
  -6 -11  -4    6.56    0.88
   6  11   4    6.66    0.97
  -6 -11  -4    5.45    0.73
   6 -11   4    4.54    0.80
  -6  11  -4    4.77    0.79
   7 -11   4    3.97    0.79
  -7 -11  -4    5.22    0.75
   7  11   4    6.55    1.05
  -7  11  -4    4.47    0.87
  -7  12   4    0.84    0.54
  -7 -12   4    1.82    0.69
  -6 -12   4   11.15    1.21
   6 -12  -4   10.74    1.14
   6  12  -4    8.65    1.10
  -6  12   4    9.97    1.05
  -5 -12   4    4.57    0.81
  -5  12   4    5.77    0.79
   5  12  -4    4.58    0.77
   5 -12  -4    4.71    0.74
  -4 -12   4   -0.17    0.43
   4 -12  -4   -0.11    0.34
   4  12  -4    0.77    0.41
  -4  12   4    0.26    0.36
   3  12  -4   28.03    2.10
  -3  12   4   27.13    2.05
   3 -12  -4   31.16    2.01
  -3 -12   4   29.10    2.17
   2  12  -4    4.67    0.71
   2 -12  -4    4.70    0.62
   2 -12  -4    4.40    0.64
  -2  12   4    3.78    0.59
  -2  12   4    5.14    0.64
  -2 -12   4    4.47    0.75
   1 -12  -4    5.21    0.63
   1 -12  -4    5.21    0.75
  -1 -12   4    5.02    0.79
  -1  12   4    7.98    0.72
   1  12  -4    5.86    0.75
  -1  12   4    7.87    0.74
   0 -12  -4   24.71    1.74
   0 -12   4   22.63    1.74
   0  12   4   21.49    1.67
   0  12   4   20.99    1.62
   0  12  -4   22.90    1.68
   0 -12   4   22.14    1.49
   1  12   4    9.04    0.94
   1 -12   4    7.49    0.74
  -1  12  -4    7.72    0.81
  -1 -12  -4    8.85    0.94
   1  12   4    7.11    0.80
   1 -12   4    7.93    0.86
  -2 -12  -4    0.96    0.46
  -2  12  -4    0.74    0.39
   2  12   4    1.71    0.45
   2  12   4    1.06    0.39
   2 -12   4    1.58    0.42
   2 -12   4    0.89    0.43
  -3  12  -4    3.97    0.67
   3 -12   4    4.28    0.64
   3  12   4    5.33    0.78
  -3 -12  -4    4.86    0.74
   3  12   4    4.62    0.68
   4  12   4    3.16    0.63
   4 -12   4    4.08    0.64
   4  12   4    3.47    0.70
  -4 -12  -4    2.95    0.63
  -4  12  -4    3.77    0.64
  -5 -12  -4    2.22    0.58
   5 -12   4    2.07    0.57
  -5  12  -4    2.28    0.57
   5  12   4    2.10    0.64
  -6 -12  -4    4.09    0.69
   6 -12   4    4.88    0.82
   6  12   4    3.86    0.81
  -6  12  -4    3.92    0.77
  -6 -12  -4    5.87    0.89
   6 -13  -4   -0.14    0.45
  -6 -13   4    0.55    0.60
   6  13  -4    1.10    0.56
  -5  13   4    0.87    0.41
  -5 -13   4    0.19    0.49
   5  13  -4    0.04    0.45
   5 -13  -4    0.15    0.40
   4  13  -4    1.12    0.49
   4 -13  -4    1.14    0.49
  -4  13   4    2.48    0.48
  -4 -13   4    0.59    0.55
  -3 -13   4    0.18    0.41
  -3  13   4    0.16    0.35
   3  13  -4   -0.07    0.38
   3 -13  -4   -0.29    0.31
   2  13  -4    1.72    0.47
  -2  13   4    1.09    0.37
   2 -13  -4    1.47    0.44
  -2 -13   4    0.48    0.51
  -1 -13   4    0.36    0.42
   1  13  -4    0.65    0.40
   1 -13  -4    0.51    0.38
  -1  13   4    0.13    0.32
  -1  13   4    0.17    0.31
   0  13   4    0.48    0.36
   0 -13   4   -0.22    0.47
   0  13   4    0.53    0.33
   0  13  -4    0.65    0.34
   1  13   4    0.48    0.37
  -1  13  -4    0.45    0.33
  -1 -13  -4    1.31    0.46
   1 -13   4    1.26    0.45
   1  13   4    0.54    0.39
   1 -13   4    0.55    0.32
   2  13   4    0.95    0.40
  -2 -13  -4    0.23    0.42
   2  13   4    0.54    0.34
  -2  13  -4    0.30    0.35
   2 -13   4    0.90    0.36
  -3 -13  -4    5.52    0.78
   3  13   4    4.79    0.68
  -3  13  -4    4.09    0.69
   3  13   4    5.96    0.81
   3 -13   4    4.05    0.64
  -4 -13  -4   -0.21    0.40
  -4  13  -4   -0.06    0.32
   4 -13   4    0.14    0.36
   4  13   4    0.03    0.38
   4  13   4    0.26    0.49
   5  13   4    2.43    0.64
   5 -13   4    0.47    0.47
  -5 -13  -4    0.43    0.50
  -5  13  -4    1.58    0.55
   5  13   4    0.59    0.53
   6 -13   4    1.27    0.62
  -6 -13  -4    3.49    0.80
   6  13   4    2.34    0.76
  -6  13  -4    1.49    0.58
   6  13   4    3.68    0.75
   5  14  -4    0.53    0.61
   5 -14  -4   -0.08    0.42
  -5 -14   4    0.15    0.55
  -4 -14   4   -0.28    0.52
   4 -14  -4    1.30    0.49
   4  14  -4    1.33    0.51
   3  14  -4    0.03    0.43
  -3 -14   4    0.48    0.43
   3 -14  -4   -0.50    0.30
   2  14  -4    0.17    0.38
   2 -14  -4    0.72    0.42
  -2 -14   4    0.72    0.45
   1 -14  -4    3.86    0.66
  -1  14   4    2.23    0.54
   1  14  -4    3.07    0.62
  -1 -14   4    3.45    0.70
   0  14   4    7.38    0.81
   0 -14  -4    8.20    0.96
   0 -14   4    7.58    0.96
   0  14   4    9.31    0.99
   0  14  -4    7.71    0.92
  -1  14  -4    1.30    0.49
   1  14   4    2.01    0.51
   1 -14   4    1.49    0.41
   1  14   4    1.79    0.49
   1 -14   4    1.44    0.49
  -1 -14  -4    1.27    0.50
   2 -14   4    0.26    0.33
  -2  14  -4    0.73    0.42
  -2 -14  -4    2.21    0.51
   2  14   4   -0.34    0.37
   2  14   4   -0.01    0.39
  -3  14  -4    1.21    0.47
   3 -14   4    2.37    0.51
   3  14   4    1.95    0.51
   3  14   4    2.20    0.57
  -3 -14  -4    1.18    0.53
  -4 -14  -4    0.88    0.53
   4  14   4    0.83    0.48
   4  14   4    0.95    0.50
   4 -14   4    0.43    0.42
  -4  14  -4    0.20    0.40
   5 -14   4    4.52    0.79
   5  14   4    3.93    0.75
  -5 -14  -4    5.28    0.89
   5  14   4    1.59    0.69
  -5  14  -4    3.35    0.74
   6  14   4    3.18    0.77
   5 -15  -4    0.23    0.51
   4 -15  -4    2.62    0.65
   4  15  -4    1.46    0.67
  -4 -15   4    2.20    0.71
   3 -15  -4   -0.16    0.36
   3  15  -4    1.66    0.60
  -3 -15   4    0.17    0.47
  -2 -15   4    2.71    0.69
   2  15  -4    2.25    0.60
  -1 -15   4    2.44    0.65
   1 -15  -4    2.88    0.64
   1  15  -4    2.20    0.59
   0  15  -4    0.10    0.41
   0 -15   4    0.11    0.40
   0 -15  -4    0.95    0.44
   1  15   4    5.46    0.79
  -1 -15  -4    6.28    0.86
  -1  15  -4    7.38    0.90
   1 -15   4    4.69    0.80
   2 -15   4    2.15    0.51
  -2  15  -4    3.17    0.66
   2  15   4    4.03    0.68
  -2 -15  -4    3.22    0.68
   3 -15   4    0.95    0.49
  -3 -15  -4    2.49    0.62
  -3  15  -4    1.21    0.55
   3  15   4    2.23    0.61
  -4 -15  -4    1.73    0.67
   4 -15   4    1.06    0.52
  -4  15  -4    2.10    0.66
   4  15   4    2.44    0.66
  -5  15  -4   -0.27    0.52
   5  15   4    0.12    0.64
   4 -16  -4    0.19    0.53
   3  16  -4    4.91    0.96
  -3 -16   4    5.68    0.94
  -2 -16   4    0.29    0.49
   2  16  -4    0.79    0.59
  -1 -16   4    1.38    0.52
   1  16  -4    1.50    0.62
   1 -16  -4    1.74    0.59
   0 -16  -4    5.05    0.79
   0 -16   4    3.65    0.74
   0  16  -4    5.91    0.89
   1 -16   4    3.26    0.70
  -1  16  -4    3.19    0.72
  -1 -16  -4    3.08    0.68
  -2 -16  -4    0.52    0.44
   2  16   4    0.36    0.47
  -2  16  -4    0.68    0.55
   3 -16   4    2.61    0.64
  -3  16  -4    3.89    0.81
   3  16   4    3.70    0.81
  -3 -16  -4    3.01    0.74
   4  16   4    1.29    0.70
  -4  16  -4    0.49    0.58
   4 -16   4    0.52    0.55
   2  17  -4   -0.02    0.57
  -2 -17   4    0.16    0.45
   1  17  -4    0.57    0.63
  -1 -17   4    0.62    0.48
   1 -17  -4    1.55    0.55
   0 -17   4    0.42    0.45
   0  17  -4    0.09    0.57
   0 -17  -4    1.73    0.56
  -1 -17  -4    0.71    0.52
  -1  17  -4    0.46    0.63
  -2  17  -4    3.32    0.86
  -2 -17  -4    3.90    0.86
   0 -18   4    2.61    0.72
   0 -18  -4    2.07    0.65
   9   0  -5    0.61    0.63
  -9   0   5    0.46    0.61
  -8   0   5   -0.15    0.44
  -7   0   5   -0.03    0.37
  -7   0   5    0.27    0.45
   7   0  -5   -0.04    0.29
   6   0  -5   -0.20    0.26
  -6   0   5   -0.07    0.34
  -6   0   5   -0.32    0.44
   5   0  -5    0.24    0.19
  -5   0   5   -0.08    0.33
  -5   0   5   -0.05    0.25
  -4   0   5    0.15    0.26
   4   0  -5   -0.14    0.19
  -4   0   5   -0.08    0.32
  -3   0   5    0.20    0.23
  -3   0   5    0.01    0.16
   3   0  -5   -0.01    0.13
  -2   0   5   -0.03    0.12
   2   0  -5   -0.04    0.13
  -2   0   5   -0.01    0.12
  -2   0   5    0.08    0.16
   1   0  -5   -0.01    0.08
  -1   0   5    0.19    0.14
   1   0  -5    0.14    0.12
  -1   0   5    0.07    0.09
   0   0   5   -0.08    0.08
   0   0   5   -0.07    0.09
   0   0  -5   -0.11    0.09
   0   0  -5    0.36    0.09
   1   0   5    0.04    0.09
  -1   0  -5    0.01    0.11
   1   0   5    0.04    0.15
  -1   0  -5   -0.03    0.10
  -2   0  -5   -0.28    0.14
   2   0   5   -0.09    0.12
   2   0   5   -0.18    0.16
  -2   0  -5   -0.15    0.11
  -3   0  -5   -0.10    0.11
   3   0   5   -0.11    0.22
   3   0   5    0.05    0.16
  -3   0  -5   -0.32    0.17
  -4   0  -5    0.15    0.14
  -4   0  -5   -0.05    0.23
   4   0   5   -0.08    0.26
   4   0   5    0.03    0.20
   5   0   5    0.13    0.31
  -5   0  -5   -0.15    0.31
   5   0   5    0.17    0.25
   6   0   5   -0.31    0.36
   6   0   5    0.19    0.29
  -6   0  -5    0.15    0.33
  -7   0  -5   -0.06    0.41
   7   0   5    0.34    0.46
  -8   0  -5    0.71    0.52
   8   0   5   -0.55    0.49
  -9   0  -5    0.03    0.56
   9   0   5   -1.07    0.55
   9   1  -5    9.47    1.19
  -9   1   5    7.02    1.05
  -9  -1   5    6.90    1.04
  -8   1   5    1.05    0.53
   8  -1  -5    0.63    0.38
   8   1  -5    2.02    0.68
  -8  -1   5    1.08    0.53
  -8   1   5    0.96    0.55
  -7  -1   5    0.63    0.43
   7   1  -5    0.40    0.30
   7  -1  -5    0.51    0.33
  -7   1   5   -0.13    0.37
  -7   1   5    0.20    0.42
   6   1  -5   44.24    2.82
  -6   1   5   44.25    3.15
  -6   1   5   48.55    3.17
   6  -1  -5   45.56    2.85
  -6  -1   5   49.94    3.19
  -6  -1   5   45.00    3.15
  -5   1   5   10.59    0.97
   5   1  -5   11.33    0.82
   5  -1  -5   11.02    0.86
  -5  -1   5   10.41    0.83
  -5  -1   5   11.47    1.02
  -5  -1   5   11.37    0.94
  -5   1   5   10.05    0.92
   4   1  -5    5.29    0.47
  -4  -1   5    4.96    0.49
   4  -1  -5    3.85    0.41
  -4   1   5    6.72    0.63
  -4  -1   5    4.80    0.54
  -4  -1   5    4.89    0.65
   4  -1  -5    3.42    0.46
  -4   1   5    5.25    0.56
  -3  -1   5  232.45   14.05
  -3  -1   5  235.51   13.56
  -3   1   5  217.93   14.07
  -3   1   5  233.42   14.05
   3  -1  -5  217.05   13.52
  -3  -1   5  243.73   12.74
  -3  -1   5  216.53   14.07
   3  -1  -5  215.08   12.75
  -2   1   5   87.06    4.81
  -2  -1   5   71.48    4.78
  -2  -1   5   77.95    4.65
  -2   1   5   73.92    4.77
  -2   1   5   74.50    4.36
  -2  -1   5   77.52    4.35
  -2  -1   5   71.49    4.78
   2  -1  -5   76.58    4.62
  -1   1   5  325.62   18.61
   1   1  -5  318.11   18.63
   1  -1  -5  290.76   17.96
  -1   1   5  278.44   16.86
  -1  -1   5  296.46   17.98
  -1  -1   5  298.37   16.86
   0   1  -5   13.86    0.91
   0   1   5   15.23    0.93
   0  -1  -5   13.72    0.92
   0  -1   5   13.64    0.85
   0   1  -5   12.12    0.91
   0  -1  -5   13.54    0.88
   0   1   5   13.22    0.85
   1  -1   5   91.29    5.31
   1   1   5   94.53    5.29
  -1  -1  -5   98.53    5.66
  -1  -1  -5   98.50    5.86
  -1   1  -5   92.33    5.65
  -1   1  -5   86.84    5.85
   2  -1   5   99.06    6.06
  -2  -1  -5   98.94    6.12
  -2  -1  -5   92.31    5.86
  -2   1  -5   92.46    6.11
  -2   1  -5   94.55    5.85
   2  -1   5   96.36    5.52
   2   1   5   97.30    5.49
   2   1   5  106.05    6.08
   3  -1   5   31.63    1.97
  -3  -1  -5   30.24    2.06
  -3   1  -5   34.47    2.04
   3   1   5   35.93    1.95
   3  -1   5   35.59    2.18
  -3   1  -5   30.81    2.20
   3   1   5   32.37    2.18
  -3  -1  -5   31.15    2.21
  -4  -1  -5   11.39    0.80
  -4   1  -5   11.33    0.75
   4  -1   5   10.91    0.92
  -4   1  -5   11.53    0.95
   4   1   5   10.18    0.91
   4   1   5   10.93    0.78
  -4  -1  -5    9.66    0.92
   4  -1   5   10.28    0.81
   5  -1   5  136.12    8.29
   5  -1   5  125.54    7.50
   5   1   5  140.68    7.47
  -5   1  -5  136.39    8.37
  -5  -1  -5  121.20    8.35
   5   1   5  124.58    8.27
  -6  -1  -5    2.76    0.61
   6  -1   5    2.73    0.51
  -6   1  -5    2.87    0.57
   6  -1   5    1.80    0.55
   6   1   5    4.11    0.70
  -7  -1  -5   19.54    1.59
   7  -1   5   15.90    1.46
   7   1   5   18.27    1.51
  -7   1  -5   18.00    1.53
  -8   1  -5   20.33    1.71
   8   1   5   16.59    1.59
   8  -1   5   20.61    1.65
  -8  -1  -5   19.03    1.66
  -9  -1  -5    0.20    0.52
  -9   1  -5   -0.24    0.59
   9   1   5   -0.67    0.60
   9  -1   5   -0.41    0.64
  -9   2   5    2.45    0.78
   9   2  -5    2.04    0.71
  -9  -2   5    1.83    0.72
   8   2  -5   27.99    2.20
   8  -2  -5   27.01    1.95
  -8  -2   5   29.19    2.16
  -8   2   5   29.87    2.19
  -8   2   5   26.11    2.13
  -7  -2   5    9.20    0.96
   7   2  -5   12.60    1.25
  -7   2   5   10.76    1.12
   7  -2  -5    9.78    0.91
  -7   2   5    8.92    1.00
  -6   2   5    3.43    0.60
   6   2  -5    3.42    0.46
   6  -2  -5    2.78    0.47
  -6  -2   5    3.74    0.58
  -6   2   5    2.77    0.60
  -5   2   5   39.18    2.81
  -5  -2   5   40.84    2.67
  -5  -2   5   42.24    2.80
  -5  -2   5   43.75    2.85
   5  -2  -5   37.86    2.56
   5   2  -5   46.88    2.54
  -5   2   5   41.88    2.83
  -4  -2   5    4.16    0.47
   4  -2  -5    3.19    0.40
   4  -2  -5    3.12    0.34
   4   2  -5    3.35    0.36
  -4  -2   5    3.97    0.44
  -4   2   5    3.36    0.47
  -4   2   5    3.78    0.52
  -4  -2   5    3.76    0.57
   3  -2  -5  151.54    8.98
  -3  -2   5  161.08    9.55
  -3  -2   5  151.91    9.87
  -3  -2   5  163.76    8.94
  -3   2   5  161.16    9.89
  -3  -2   5  165.69    9.89
   3  -2  -5  155.62    9.49
  -3   2   5  156.54    9.88
  -2  -2   5    2.08    0.29
  -2  -2   5    1.91    0.24
   2  -2  -5    1.12    0.22
  -2  -2   5    1.73    0.28
  -2  -2   5    1.69    0.21
  -2   2   5    2.10    0.31
  -2   2   5    1.51    0.22
  -1   2   5  283.91   16.68
  -1   2   5  248.19   15.11
  -1  -2   5  268.61   16.13
   1  -2  -5  264.10   16.11
  -1  -2   5  258.80   15.11
   1   2  -5  295.33   16.71
   0  -2   5  853.04   51.08
   0  -2  -5  873.04   51.08
   0   2   5  852.35   52.99
   0  -2   5  820.32   47.92
   0   2  -5  921.88   53.05
   0   2   5  835.31   47.91
   1  -2   5    5.32    0.44
  -1  -2  -5    5.70    0.46
  -1  -2  -5    5.25    0.45
   1   2   5    5.20    0.39
  -1   2  -5    4.86    0.45
  -1   2  -5    5.71    0.44
   1   2   5    6.28    0.54
  -2   2  -5   40.29    2.47
   2   2   5   41.76    2.31
  -2  -2  -5   41.76    2.63
   2   2   5   40.93    2.60
   2  -2   5   38.68    2.37
  -2  -2  -5   38.50    2.50
  -2   2  -5   38.65    2.61
   3   2   5    6.20    0.62
   3   2   5    6.35    0.44
  -3   2  -5    4.96    0.42
  -3  -2  -5    6.25    0.63
   3  -2   5    5.14    0.52
  -3   2  -5    4.78    0.54
  -3  -2  -5    5.54    0.50
   3  -2   5    6.13    0.59
  -4  -2  -5   90.42    6.32
   4  -2   5  101.34    6.25
  -4   2  -5  100.16    5.92
  -4   2  -5  100.87    6.31
   4  -2   5   95.88    5.69
  -4  -2  -5  101.44    6.01
   4   2   5  105.90    5.62
   4   2   5   91.62    6.25
   5  -2   5    3.25    0.55
  -5  -2  -5    3.76    0.44
  -5  -2  -5    2.84    0.59
  -5   2  -5    4.29    0.60
   5  -2   5    3.91    0.52
   5   2   5    3.38    0.61
   6  -2   5   46.18    2.97
  -6   2  -5   43.52    3.02
   6   2   5   43.07    2.97
   6  -2   5   41.21    2.70
  -6  -2  -5   41.57    3.05
  -7   2  -5   16.63    1.43
  -7  -2  -5   16.70    1.50
   7  -2   5   15.33    1.28
   7   2   5   15.94    1.41
   7  -2   5   19.07    1.45
   8   2   5    0.60    0.55
   8  -2   5    1.43    0.61
  -8  -2  -5    1.80    0.58
  -8   2  -5    1.36    0.61
  -9   2  -5    2.86    0.85
  -9  -2  -5    2.95    0.71
   9  -2   5    3.13    0.86
  -9  -3   5    0.71    0.68
  -9   3   5    0.54    0.57
   9   3  -5    0.97    0.60
   9  -3  -5    0.54    0.40
   8  -3  -5   -0.36    0.29
   8   3  -5    0.11    0.53
  -8   3   5   -0.30    0.46
  -8   3   5   -0.20    0.44
  -8  -3   5   -0.16    0.44
   7   3  -5    2.11    0.63
  -7  -3   5    1.28    0.47
   7  -3  -5    0.81    0.37
  -7   3   5    1.37    0.52
  -7   3   5    1.65    0.53
  -6   3   5   17.36    1.42
   6   3  -5   17.46    1.50
   6  -3  -5   18.13    1.32
  -6   3   5   16.07    1.41
  -6  -3   5   20.38    1.44
   5  -3  -5    0.30    0.23
  -5  -3   5    0.57    0.27
   5   3  -5    0.86    0.22
  -5  -3   5    0.61    0.30
  -5   3   5    0.34    0.28
  -5   3   5    0.53    0.37
  -4  -3   5   14.11    0.94
  -4  -3   5   15.52    1.07
  -4   3   5   14.58    1.09
   4  -3  -5   14.63    0.96
   4  -3  -5   14.52    1.03
  -4   3   5   13.00    1.08
  -3  -3   5    4.97    0.51
   3  -3  -5    4.78    0.44
  -3  -3   5    6.20    0.61
   3  -3  -5    5.10    0.51
  -3   3   5    5.44    0.51
  -3  -3   5    5.58    0.43
  -3  -3   5    5.90    0.52
  -3   3   5    5.22    0.54
   2  -3  -5    2.98    0.31
  -2   3   5    2.94    0.30
  -2  -3   5    3.05    0.29
  -2   3   5    2.86    0.39
  -2  -3   5    2.87    0.36
  -2  -3   5    3.29    0.34
   2  -3  -5    2.58    0.31
   1   3  -5   23.11    1.44
  -1  -3   5   22.52    1.32
  -1   3   5   20.99    1.45
   1  -3  -5   22.36    1.41
  -1   3   5   20.82    1.32
  -1  -3   5   20.02    1.42
   0   3   5   46.71    2.83
   0  -3   5   49.90    2.85
   0   3  -5   50.58    3.14
   0   3   5   47.19    3.12
   0  -3  -5   50.23    3.05
   0  -3   5   51.66    3.06
   1  -3   5   14.68    0.96
   1   3   5   15.08    1.02
  -1  -3  -5   13.52    0.97
   1  -3   5   12.84    0.91
   1   3   5   14.13    0.86
  -1  -3  -5   14.67    0.97
  -1   3  -5   14.06    1.00
  -2  -3  -5   18.11    1.29
   2  -3   5   19.29    1.19
  -2  -3  -5   16.80    1.23
  -2   3  -5   17.49    1.28
   2   3   5   18.48    1.09
  -2   3  -5   18.68    1.19
   2   3   5   19.65    1.30
  -3  -3  -5   33.56    2.23
   3   3   5   36.38    1.91
   3  -3   5   31.01    2.17
   3   3   5   31.69    2.19
  -3   3  -5   31.95    2.20
  -3   3  -5   33.22    2.03
   3  -3   5   34.05    2.03
  -3  -3  -5   29.80    2.09
  -4  -3  -5   40.03    2.94
   4  -3   5   44.25    2.90
   4   3   5   42.57    2.91
   4  -3   5   43.02    2.67
   4   3   5   47.91    2.55
  -4   3  -5   46.17    2.94
  -4  -3  -5   41.62    2.78
  -5  -3  -5    3.82    0.65
   5  -3   5    4.01    0.55
   5  -3   5    4.15    0.64
   5   3   5    5.47    0.69
  -5  -3  -5    3.87    0.49
  -5   3  -5    4.11    0.59
   6  -3   5    9.24    0.85
  -6   3  -5    8.85    0.90
   6  -3   5    9.02    0.92
   6   3   5    8.69    0.94
  -6  -3  -5    9.05    1.04
  -7   3  -5    1.50    0.48
   7  -3   5    1.73    0.48
  -7  -3  -5    0.78    0.51
   7   3   5    2.09    0.57
   7  -3   5    0.82    0.49
   8  -3   5   19.64    1.64
  -8   3  -5   18.86    1.63
  -8  -3  -5   18.21    1.65
   8   3   5   18.41    1.62
   9  -3   5    0.44    0.66
  -9   4   5    0.20    0.46
   9   4  -5   -0.01    0.56
   9  -4  -5    0.18    0.40
  -9  -4   5    0.03    0.65
   8   4  -5    1.86    0.67
  -8  -4   5    2.77    0.69
   8  -4  -5    1.94    0.50
  -8   4   5    1.54    0.58
  -8   4   5    1.71    0.62
  -7  -4   5   -0.04    0.40
  -7   4   5    0.28    0.40
  -7   4   5    0.23    0.40
   7  -4  -5    0.01    0.28
   7   4  -5    0.71    0.50
   6  -4  -5    0.66    0.32
  -6  -4   5    0.84    0.39
  -6   4   5    0.91    0.44
   6   4  -5    1.18    0.50
  -6   4   5    0.50    0.35
   5   4  -5    0.71    0.42
  -5  -4   5    0.60    0.33
  -5   4   5    1.47    0.36
   5   4  -5    1.08    0.24
   5  -4  -5    0.97    0.31
  -5  -4   5    0.78    0.29
  -5   4   5    1.29    0.42
  -4  -4   5   23.65    1.44
  -4   4   5   22.64    1.63
   4  -4  -5   21.98    1.48
   4  -4  -5   21.54    1.53
  -4  -4   5   26.37    1.66
   4   4  -5   22.93    1.68
  -4  -4   5   25.48    1.62
  -4   4   5   23.49    1.67
  -3  -4   5    2.79    0.36
  -3   4   5    2.37    0.32
   3  -4  -5    2.31    0.33
   3  -4  -5    1.93    0.26
  -3   4   5    2.25    0.37
   3   4  -5    2.49    0.39
  -3  -4   5    2.00    0.34
  -3  -4   5    2.24    0.25
  -2   4   5   -0.01    0.12
   2  -4  -5    0.03    0.14
   2  -4  -5   -0.11    0.12
   2   4  -5   -0.23    0.13
  -2   4   5   -0.21    0.16
  -2  -4   5   -0.11    0.08
  -2  -4   5   -0.10    0.16
  -1   4   5   15.83    1.12
   1  -4  -5   16.34    1.08
  -1   4   5   14.05    1.03
   1  -4  -5   15.51    1.01
  -1  -4   5   17.81    1.01
  -1  -4   5   15.89    1.12
   1   4  -5   16.90    1.10
   0   4   5    0.20    0.11
   0   4   5    0.26    0.11
   0  -4  -5    0.10    0.14
   0   4   5    0.17    0.17
   0   4  -5    0.11    0.15
   0  -4   5    0.05    0.12
   0  -4   5    0.64    0.19
   1   4   5   38.99    2.24
   1  -4   5   38.62    2.44
  -1  -4  -5   38.02    2.50
  -1  -4  -5   37.74    2.46
  -1   4  -5   41.44    2.54
   1  -4   5   38.00    2.31
   1   4   5   39.47    2.54
  -2   4  -5   54.51    3.46
   2   4   5   51.69    3.45
  -2  -4  -5   53.11    3.45
   2   4   5   54.21    3.04
  -2  -4  -5   54.22    3.35
   2  -4   5   53.62    3.29
   2  -4   5   53.88    3.16
  -3  -4  -5    6.90    0.69
  -3  -4  -5    7.63    0.67
   3   4   5    8.10    0.51
   3   4   5    7.45    0.72
  -3   4  -5    8.32    0.70
   3  -4   5    7.52    0.68
  -3   4  -5    8.33    0.59
  -4  -4  -5    0.20    0.26
   4  -4   5    0.23    0.27
   4  -4   5    0.23    0.30
  -4  -4  -5    0.47    0.25
   4   4   5   -0.10    0.26
  -4   4  -5    0.33    0.26
   5  -4   5    0.78    0.36
  -5  -4  -5    0.31    0.27
   5   4   5    0.38    0.40
  -5   4  -5    0.86    0.34
   5  -4   5    0.15    0.36
  -5  -4  -5    0.27    0.33
  -6   4  -5    1.69    0.46
   6  -4   5    1.98    0.48
   6   4   5    2.34    0.58
   6  -4   5    1.90    0.55
  -6  -4  -5    1.13    0.49
   7  -4   5   -0.24    0.36
  -7  -4  -5   -0.22    0.35
   7   4   5   -0.07    0.40
   7  -4   5   -0.16    0.30
  -7   4  -5    0.22    0.35
  -8   4  -5    6.88    0.96
   8  -4   5    6.98    0.96
   8   4   5    6.98    1.04
   8  -4   5    5.74    0.83
  -8  -4  -5    9.22    1.06
   9  -4   5    0.15    0.73
  -9  -5   5   14.38    1.54
   9   5  -5   10.63    1.38
   9  -5  -5   11.99    1.22
  -8   5   5    2.61    0.67
   8  -5  -5    2.51    0.57
   8   5  -5    3.31    0.79
  -8  -5   5    3.78    0.78
   7   5  -5   10.70    1.13
  -7   5   5    9.58    1.04
  -7   5   5    7.86    0.97
   7  -5  -5    7.38    0.88
  -7  -5   5    9.03    1.03
  -6  -5   5    7.76    0.84
   6  -5  -5    5.18    0.68
  -6  -5   5    6.15    0.70
  -6   5   5    6.62    0.83
   6   5  -5    5.26    0.80
  -6   5   5    7.65    0.79
  -5   5   5    2.19    0.46
   5   5  -5    2.54    0.53
   5  -5  -5    1.91    0.41
  -5  -5   5    2.80    0.45
  -5  -5   5    2.47    0.48
  -5   5   5    3.18    0.54
  -4  -5   5    3.93    0.39
  -4  -5   5    4.58    0.54
   4   5  -5    4.45    0.57
   4  -5  -5    3.70    0.49
  -4  -5   5    5.49    0.57
  -4   5   5    3.61    0.55
  -4   5   5    4.50    0.53
   3  -5  -5    0.33    0.18
  -3   5   5    0.09    0.16
   3   5  -5   -0.34    0.17
  -3  -5   5   -0.02    0.19
  -3   5   5   -0.36    0.14
   3  -5  -5    0.23    0.15
  -3  -5   5    0.16    0.12
  -3  -5   5    0.01    0.18
  -2   5   5    4.93    0.43
   2  -5  -5    4.99    0.45
  -2   5   5    4.94    0.52
   2  -5  -5    4.63    0.44
  -2  -5   5    5.22    0.41
   2   5  -5    5.47    0.49
  -2  -5   5    4.92    0.52
  -1   5   5    4.51    0.40
   1  -5  -5    5.25    0.47
  -1  -5   5    5.22    0.41
   1  -5  -5    4.59    0.42
  -1   5   5    5.49    0.51
  -1  -5   5    4.79    0.50
   1   5  -5    6.12    0.48
   0  -5   5    3.46    0.41
   0   5   5    3.69    0.44
   0  -5  -5    3.92    0.40
   0   5   5    3.58    0.33
   0  -5   5    3.25    0.35
   0  -5  -5    3.08    0.30
   0   5  -5    4.23    0.41
   1   5   5   55.33    3.56
  -1   5  -5   56.75    3.56
   1  -5   5   52.92    3.23
  -1  -5  -5   55.48    3.46
  -1  -5  -5   55.07    3.53
  -1  -5  -5   54.96    3.15
   1  -5   5   56.84    3.43
   2   5   5   41.93    2.79
   2  -5   5   42.38    2.65
  -2  -5  -5   42.54    2.77
  -2  -5  -5   41.99    2.71
  -2   5  -5   41.53    2.78
   2  -5   5   45.06    2.57
   3   5   5    5.82    0.63
  -3   5  -5    5.01    0.57
  -3  -5  -5    4.70    0.53
   3  -5   5    5.58    0.56
  -3   5  -5    5.48    0.45
  -3  -5  -5    5.64    0.57
   4   5   5   35.59    2.63
  -4   5  -5   41.15    2.65
  -4  -5  -5   37.24    2.64
   4  -5   5   41.37    2.47
  -4  -5  -5   40.05    2.54
  -5   5  -5    1.46    0.41
  -5  -5  -5    1.35    0.38
   5   5   5    1.43    0.48
   5  -5   5    1.87    0.45
   5  -5   5    1.96    0.52
  -5  -5  -5    1.59    0.45
   6  -5   5    0.09    0.31
  -6  -5  -5   -0.30    0.30
   6  -5   5    0.25    0.38
   6   5   5    0.17    0.39
  -6   5  -5   -0.23    0.29
  -7   5  -5    0.00    0.33
  -7  -5  -5   -0.21    0.36
   7  -5   5    0.63    0.45
   7  -5   5    0.07    0.34
   7   5   5    0.11    0.51
   8   5   5    4.80    0.90
   8  -5   5    3.91    0.69
  -8  -5  -5    5.52    0.82
   8  -5   5    4.69    0.84
  -8   5  -5    4.37    0.80
   9  -5   5    6.22    1.12
   9   6  -5    1.80    0.80
   9  -6  -5    2.63    0.67
   8  -6  -5   20.16    1.58
  -8   6   5   17.86    1.63
  -8  -6   5   20.76    1.69
   8   6  -5   19.76    1.69
  -7   6   5   10.06    1.08
  -7  -6   5    9.65    0.97
   7   6  -5    9.64    1.10
   7  -6  -5    7.09    0.89
  -6  -6   5    2.86    0.55
  -6  -6   5    2.83    0.53
   6  -6  -5    1.39    0.42
  -6   6   5    3.71    0.57
   6   6  -5    2.37    0.60
  -6   6   5    2.30    0.56
   5  -6  -5    2.91    0.50
  -5  -6   5    3.44    0.53
  -5   6   5    4.17    0.56
  -5   6   5    3.72    0.60
  -5  -6   5    4.66    0.59
   5   6  -5    3.06    0.59
  -4  -6   5   38.82    2.47
  -4  -6   5   35.65    2.48
   4   6  -5   35.89    2.47
  -4   6   5   34.82    2.50
   4  -6  -5   36.56    2.33
  -4   6   5   38.12    2.46
  -4  -6   5   38.13    2.18
  -3  -6   5    1.33    0.31
  -3   6   5    1.05    0.30
  -3   6   5    0.76    0.22
   3  -6  -5    1.13    0.23
   3  -6  -5    0.40    0.21
  -3  -6   5    0.61    0.15
   2  -6  -5   52.42    3.32
  -2  -6   5   57.23    3.10
   2  -6  -5   53.93    3.17
  -2   6   5   48.26    3.38
   2   6  -5   56.32    3.47
  -2  -6   5   54.32    3.39
  -2   6   5   52.13    3.46
  -1  -6   5   11.04    0.97
   1  -6  -5   13.59    0.90
   1  -6  -5   13.29    0.96
   1   6  -5   13.46    0.97
  -1  -6   5   13.43    0.86
  -1   6   5   13.04    0.91
  -1   6   5   13.34    0.99
   0  -6   5  243.54   14.14
   0   6   5  227.31   14.60
   0  -6  -5  236.90   14.13
   0   6  -5  247.12   14.65
   0  -6  -5  237.56   13.20
   0   6   5  218.37   14.58
   0  -6   5  236.48   13.24
   1  -6   5    1.54    0.28
  -1  -6  -5    1.83    0.20
  -1   6  -5    2.53    0.35
   1  -6   5    2.04    0.31
  -1  -6  -5    1.60    0.32
   1   6   5    2.19    0.38
   2  -6   5    5.24    0.50
   2   6   5    5.56    0.61
  -2  -6  -5    5.01    0.51
  -2   6  -5    6.26    0.58
  -2  -6  -5    5.34    0.55
   2  -6   5    5.30    0.53
  -3  -6  -5   29.95    1.97
  -3   6  -5   30.24    2.02
  -3  -6  -5   29.22    1.99
   3  -6   5   28.86    1.87
   3   6   5   27.04    2.00
   3  -6   5   28.76    1.85
  -4   6  -5    7.80    0.75
  -4  -6  -5    7.05    0.71
   4   6   5    7.42    0.79
  -4  -6  -5    8.13    0.74
   4  -6   5    8.50    0.80
  -5   6  -5    1.11    0.39
  -5  -6  -5    0.94    0.36
   5  -6   5    0.54    0.34
   5   6   5    0.99    0.44
  -5  -6  -5    1.08    0.35
   6   6   5    5.59    0.85
   6  -6   5    5.67    0.83
  -6   6  -5    6.95    0.80
  -6  -6  -5    6.25    0.80
   6  -6   5    7.16    0.81
   7   6   5    5.63    0.88
   7  -6   5    4.97    0.76
   7  -6   5    4.66    0.72
  -7  -6  -5    3.55    0.67
  -7   6  -5    4.67    0.73
  -8  -6  -5    4.22    0.72
   8  -6   5    4.03    0.81
   8   6   5    3.58    0.80
   8  -6   5    4.20    0.74
  -8   6  -5    3.75    0.77
   9  -6   5    5.06    0.84
   8  -7  -5    0.78    0.43
  -8  -7   5    0.12    0.54
   8   7  -5   -0.12    0.57
  -8   7   5    0.64    0.44
  -7  -7   5    0.67    0.45
  -7   7   5    1.15    0.48
   7  -7  -5    0.48    0.37
   7   7  -5    0.15    0.50
   6   7  -5   10.43    1.08
  -6  -7   5   12.38    1.06
   6  -7  -5   10.14    1.00
  -6   7   5   11.56    1.09
  -6  -7   5   12.41    1.07
   5   7  -5    3.27    0.56
  -5   7   5    3.44    0.58
  -5   7   5    3.15    0.51
   5  -7  -5    2.62    0.49
  -5  -7   5    3.31    0.55
  -5  -7   5    3.24    0.53
   4   7  -5    0.73    0.33
   4  -7  -5    0.45    0.27
  -4   7   5    1.05    0.30
  -4   7   5    1.01    0.37
  -4  -7   5    0.99    0.35
  -4  -7   5    0.94    0.34
   3  -7  -5    0.92    0.25
  -3  -7   5    0.56    0.16
  -3   7   5    1.06    0.27
  -3  -7   5    0.53    0.32
   3  -7  -5    0.71    0.25
   3   7  -5    0.83    0.31
  -3   7   5    0.97    0.33
   2   7  -5    2.30    0.38
   2  -7  -5    2.61    0.36
  -2  -7   5    2.43    0.28
   2  -7  -5    2.61    0.35
  -2   7   5    2.75    0.34
  -2   7   5    2.86    0.41
  -2  -7   5    2.08    0.40
   1   7  -5   11.81    0.96
   1  -7  -5   13.05    0.89
  -1   7   5   13.84    1.01
   1  -7  -5   12.92    0.96
  -1  -7   5   13.15    0.86
  -1  -7   5   11.72    0.99
   0   7   5    2.03    0.29
   0   7  -5    2.64    0.38
   0   7   5    1.85    0.35
   0  -7  -5    1.85    0.25
   0  -7   5    1.53    0.33
   0  -7   5    1.40    0.26
   0  -7  -5    1.67    0.32
   1   7   5   46.58    2.99
   1  -7   5   45.94    2.76
  -1   7  -5   46.40    3.03
  -1  -7  -5   46.28    2.66
  -1  -7  -5   45.33    2.96
   1  -7   5   45.85    2.93
   1   7   5   46.37    3.03
   2  -7   5    5.13    0.54
   2   7   5    6.13    0.65
  -2   7  -5    5.40    0.60
   2  -7   5    4.69    0.50
  -2  -7  -5    5.38    0.60
  -2  -7  -5    6.26    0.57
   3  -7   5   16.27    1.12
  -3  -7  -5   14.60    1.20
  -3   7  -5   16.94    1.24
  -3  -7  -5   16.13    1.20
   3   7   5   14.97    1.23
   3  -7   5   16.06    1.18
  -4   7  -5    2.75    0.49
  -4  -7  -5    2.89    0.49
   4  -7   5    2.73    0.51
  -4  -7  -5    3.23    0.49
   4   7   5    2.84    0.56
   5   7   5   14.54    1.29
   5  -7   5   16.16    1.27
  -5   7  -5   15.98    1.26
  -5  -7  -5   16.20    1.26
  -5  -7  -5   15.20    1.26
  -5   7  -5   15.51    1.27
   6  -7   5    1.02    0.46
   6   7   5    1.27    0.51
  -6  -7  -5    2.08    0.48
  -6  -7  -5    0.97    0.43
  -6   7  -5    1.20    0.43
  -7  -7  -5    0.48    0.36
   7   7   5    0.37    0.50
   7  -7   5    0.38    0.42
  -7   7  -5    0.08    0.40
   8  -7   5    1.35    0.50
   8   7   5    0.52    0.58
  -8  -7  -5    1.78    0.51
  -8   7  -5    0.65    0.57
   8   8  -5    3.00    0.78
   8  -8  -5    1.26    0.52
  -8  -8   5    2.73    0.75
  -8   8   5    2.17    0.65
  -7  -8   5    0.34    0.40
   7   8  -5    0.00    0.45
  -7   8   5    0.52    0.49
   7  -8  -5   -0.17    0.33
  -6   8   5    0.77    0.42
  -6  -8   5    0.25    0.35
  -6  -8   5    0.30    0.40
   6   8  -5    0.52    0.44
   6  -8  -5    0.23    0.30
  -5   8   5    0.15    0.33
  -5  -8   5    1.25    0.40
  -5   8   5    0.28    0.37
   5   8  -5    0.58    0.38
   5  -8  -5    0.36    0.32
  -5  -8   5    0.39    0.37
  -4   8   5    2.27    0.46
   4   8  -5    2.23    0.48
  -4  -8   5    2.54    0.48
  -4   8   5    1.52    0.37
   4  -8  -5    2.33    0.45
   3   8  -5    2.81    0.49
  -3   8   5    2.81    0.46
  -3   8   5    3.80    0.44
   3  -8  -5    2.02    0.41
   3  -8  -5    2.36    0.39
  -2   8   5    4.29    0.55
   2  -8  -5    4.69    0.50
   2  -8  -5    4.81    0.50
  -2  -8   5    3.84    0.54
  -2  -8   5    4.24    0.38
   2   8  -5    3.67    0.52
  -2   8   5    3.97    0.44
  -1   8   5   36.26    2.43
   1  -8  -5   35.19    2.43
  -1  -8   5   40.96    2.50
  -1   8   5   36.60    2.50
  -1  -8   5   40.51    2.24
   1   8  -5   34.36    2.48
   1  -8  -5   37.84    2.28
   0  -8  -5    4.35    0.41
   0   8  -5    4.14    0.52
   0   8   5    3.44    0.49
   0  -8   5    4.36    0.52
   0   8   5    4.66    0.47
   0  -8  -5    3.55    0.49
   0  -8   5    3.31    0.40
   1  -8   5   10.30    0.81
   1  -8   5   10.42    0.86
  -1  -8  -5   10.23    0.89
  -1   8  -5   10.31    0.87
   1   8   5   10.68    0.84
  -1  -8  -5   10.74    0.70
   1   8   5   10.37    0.90
  -2  -8  -5    0.72    0.32
   2   8   5    0.94    0.37
   2  -8   5    0.71    0.27
  -2   8  -5    0.88    0.31
   2  -8   5    0.44    0.27
  -3  -8  -5   38.74    2.53
  -3   8  -5   36.53    2.56
   3  -8   5   38.34    2.40
   3   8   5   36.39    2.55
  -4   8  -5    0.73    0.35
  -4  -8  -5    0.69    0.35
   4   8   5    0.51    0.41
  -4  -8  -5    0.65    0.31
   4  -8   5    0.40    0.34
  -5   8  -5    0.37    0.32
  -5  -8  -5    0.27    0.29
   5  -8   5    0.32    0.36
   5   8   5    0.21    0.42
  -5  -8  -5   -0.25    0.30
  -6  -8  -5    0.47    0.33
  -6  -8  -5    0.24    0.35
   6   8   5   -0.18    0.43
   6  -8   5    0.43    0.40
  -6   8  -5    0.21    0.34
   7  -8   5    0.40    0.44
   7   8   5    0.35    0.51
  -7   8  -5   -0.04    0.40
  -7  -8  -5    0.66    0.41
   8   8   5   -0.14    0.60
   8  -8   5    1.33    0.54
  -8  -8  -5    1.64    0.54
  -8   8  -5    0.55    0.53
  -8  -9   5    0.62    0.56
   8  -9  -5    0.10    0.42
  -8   9   5    0.37    0.43
  -7   9   5   11.95    1.17
   7  -9  -5   13.57    1.19
  -7  -9   5   11.72    1.17
  -6  -9   5    2.54    0.54
   6  -9  -5    0.83    0.42
  -6   9   5    1.29    0.50
   5  -9  -5    0.02    0.28
  -5  -9   5    0.27    0.40
  -5   9   5    0.24    0.36
   4  -9  -5   -0.09    0.29
  -4   9   5    0.41    0.29
  -4  -9   5    0.62    0.36
   4   9  -5    0.65    0.40
  -4   9   5    0.95    0.38
   3   9  -5   27.35    1.98
  -3  -9   5   26.31    1.98
   3  -9  -5   28.34    1.87
   3  -9  -5   28.47    1.89
  -3   9   5   29.34    1.98
  -3   9   5   27.37    1.91
   2  -9  -5    1.76    0.36
  -2  -9   5    1.31    0.23
  -2  -9   5    1.15    0.39
   2   9  -5    1.25    0.36
  -2   9   5    2.22    0.35
   2  -9  -5    1.32    0.32
  -2   9   5    1.76    0.39
   1  -9  -5   26.39    1.64
  -1   9   5   26.47    1.82
  -1   9   5   24.69    1.74
   1  -9  -5   26.03    1.78
  -1  -9   5   27.54    1.82
  -1  -9   5   26.66    1.60
   1   9  -5   21.89    1.77
   0   9   5    9.04    0.82
   0   9   5    9.12    0.74
   0   9  -5    8.14    0.78
   0  -9  -5    8.98    0.82
   0  -9  -5    7.57    0.66
   0  -9   5   10.80    0.86
  -1  -9  -5   36.08    2.34
   1  -9   5   35.25    2.16
   1   9   5   31.53    2.31
  -1   9  -5   35.00    2.36
   1  -9   5   35.57    2.30
   1   9   5   33.49    2.30
  -2  -9  -5    6.30    0.73
   2   9   5    6.15    0.70
   2  -9   5    5.47    0.64
  -2   9  -5    7.37    0.71
   2  -9   5    6.74    0.67
  -3  -9  -5   11.19    1.06
   3   9   5   13.22    1.10
  -3   9  -5   12.13    1.06
   3  -9   5   11.81    1.03
  -3  -9  -5   12.50    1.05
   4  -9   5    2.40    0.51
  -4  -9  -5    1.77    0.48
  -4   9  -5    1.96    0.46
   5   9   5   31.19    2.34
  -5   9  -5   30.25    2.30
  -5  -9  -5   35.26    2.33
   5  -9   5   35.98    2.26
  -5  -9  -5   30.00    2.28
  -6  -9  -5    6.01    0.78
  -6   9  -5    7.27    0.88
   6   9   5    7.01    0.97
  -6  -9  -5    6.97    0.85
   6  -9   5    6.19    0.86
   7  -9   5    6.88    0.92
  -7   9  -5    6.68    0.92
   7   9   5    7.74    1.03
  -7  -9  -5    6.69    0.87
  -7  10   5    6.74    0.93
   7 -10  -5    5.72    0.86
  -7 -10   5    6.38    0.94
   6 -10  -5    2.91    0.61
  -6  10   5    3.48    0.67
  -6 -10   5    3.27    0.69
   5  10  -5    9.51    0.98
   5 -10  -5    8.74    0.96
  -5 -10   5   10.91    1.04
  -5  10   5    9.21    0.95
  -4  10   5   29.45    2.27
  -4 -10   5   35.72    2.33
   4  10  -5   32.36    2.32
   4 -10  -5   32.69    2.18
   3 -10  -5   15.12    1.16
  -3 -10   5   15.54    1.30
  -3  10   5   16.33    1.16
  -3  10   5   12.95    1.17
   3  10  -5   14.80    1.22
   2 -10  -5    2.60    0.43
  -2 -10   5    2.61    0.55
   2  10  -5    3.34    0.51
  -2  10   5    3.05    0.50
  -2  10   5    2.69    0.44
   2 -10  -5    2.67    0.45
  -1  10   5    9.09    0.78
   1 -10  -5    6.97    0.74
  -1  10   5    7.29    0.67
   1  10  -5    5.98    0.68
   1 -10  -5    6.23    0.62
  -1 -10   5    6.85    0.59
  -1 -10   5    7.82    0.81
   0 -10   5   26.58    1.65
   0 -10  -5   25.35    1.82
   0  10   5   26.26    1.78
   0  10  -5   23.59    1.82
   0 -10   5   26.28    1.84
   0 -10  -5   24.70    1.62
   0  10   5   26.45    1.84
   1 -10   5   74.01    4.61
   1  10   5   66.80    4.69
  -1  10  -5   71.40    4.74
   1 -10   5   76.61    4.32
   1  10   5   74.39    4.70
  -1 -10  -5   74.61    4.65
   2  10   5   39.69    2.70
   2  10   5   36.63    2.72
  -2  10  -5   38.48    2.74
   2 -10   5   43.71    2.54
   2 -10   5   40.53    2.64
  -2 -10  -5   41.02    2.72
  -3  10  -5   77.36    5.22
  -3 -10  -5   87.80    5.14
   3 -10   5   83.46    4.81
   3  10   5   73.37    5.19
  -4  10  -5   33.18    2.44
  -4 -10  -5   35.39    2.44
   4  10   5   31.53    2.44
   4 -10   5   36.25    2.33
  -4 -10  -5   36.61    2.45
  -5  10  -5    1.13    0.44
  -5 -10  -5    0.46    0.42
  -5 -10  -5    1.40    0.42
   5  10   5    0.78    0.52
   5 -10   5    0.58    0.39
  -6 -10  -5    2.47    0.53
   6  10   5    2.33    0.72
   6 -10   5    2.83    0.63
  -6 -10  -5    2.14    0.54
  -6  10  -5    2.09    0.56
  -7  10  -5    5.59    0.92
  -7 -10  -5    7.76    0.91
   7  10   5    7.46    1.06
   7 -10   5    8.82    1.00
   7  11  -5    3.09    0.67
  -7  11   5    2.59    0.67
   7 -11  -5    3.10    0.73
  -7 -11   5    2.63    0.78
   6 -11  -5    0.25    0.40
   6  11  -5    1.42    0.48
  -6  11   5   -0.10    0.37
  -6 -11   5    0.64    0.51
   5  11  -5    0.67    0.42
   5 -11  -5    1.04    0.43
  -5  11   5    0.72    0.39
  -5 -11   5    0.54    0.46
   4  11  -5    0.58    0.40
  -4 -11   5    0.08    0.40
   4 -11  -5   -0.22    0.30
  -4  11   5    0.20    0.32
   3  11  -5    0.29    0.36
  -3  11   5    0.66    0.32
   3 -11  -5   -0.02    0.30
  -3 -11   5    0.11    0.40
  -2 -11   5    2.31    0.55
   2 -11  -5    2.60    0.48
  -2  11   5    3.50    0.48
  -2  11   5    1.88    0.47
   2  11  -5    2.07    0.49
   2 -11  -5    2.27    0.44
  -1  11   5    1.13    0.36
   1 -11  -5    1.38    0.40
  -1 -11   5    0.77    0.40
   1  11  -5    1.37    0.40
   1 -11  -5    0.78    0.32
  -1  11   5    1.07    0.41
   0  11  -5    4.17    0.61
   0  11   5    5.48    0.67
   0 -11   5    3.99    0.49
   0  11   5    4.38    0.58
   0 -11   5    4.35    0.62
   0 -11  -5    3.99    0.63
  -1  11  -5   21.57    1.62
   1 -11   5   22.43    1.61
   1  11   5   21.64    1.58
   1 -11   5   20.87    1.48
   1  11   5   21.77    1.63
  -1 -11  -5   20.03    1.62
   2 -11   5    0.78    0.35
   2  11   5    0.61    0.35
   2 -11   5    0.32    0.36
  -2 -11  -5    0.80    0.39
   2  11   5    0.66    0.40
  -2  11  -5    0.81    0.36
   3 -11   5    0.13    0.31
  -3  11  -5    0.52    0.36
   3  11   5    0.27    0.36
  -3 -11  -5    0.91    0.41
   3  11   5    0.00    0.43
  -4  11  -5    0.89    0.40
  -4 -11  -5    0.84    0.40
   4 -11   5    0.66    0.38
   4  11   5    0.40    0.46
   5  11   5    2.12    0.63
  -5 -11  -5    2.81    0.55
  -5 -11  -5    3.05    0.62
   5 -11   5    2.07    0.57
  -5  11  -5    2.74    0.56
  -6  11  -5    0.65    0.46
  -6 -11  -5    1.29    0.41
  -6 -11  -5    0.74    0.47
   6 -11   5    0.14    0.39
   6  11   5    0.13    0.51
  -7 -11  -5    1.48    0.47
   7  11   5    0.44    0.59
  -7  11  -5    0.34    0.54
  -7 -12   5    0.87    0.62
  -7  12   5   -0.22    0.42
  -6  12   5    1.15    0.49
  -6 -12   5    1.65    0.68
   6  12  -5    2.96    0.64
   6 -12  -5    2.11    0.63
   5  12  -5    6.52    0.90
  -5 -12   5    6.65    0.95
   5 -12  -5    5.54    0.82
  -5  12   5    7.67    0.89
   4  12  -5    4.57    0.70
  -4 -12   5    3.15    0.68
   4 -12  -5    2.79    0.60
  -4  12   5    3.59    0.60
   3  12  -5    0.89    0.38
   3 -12  -5    0.40    0.33
  -3 -12   5    0.02    0.46
  -3  12   5    0.14    0.32
  -2  12   5    7.13    0.79
   2 -12  -5    8.41    0.86
  -2 -12   5    7.68    0.94
   2  12  -5    7.85    0.90
   2 -12  -5    8.80    0.84
   1 -12  -5   21.63    1.65
  -1 -12   5   23.05    1.72
  -1  12   5   24.37    1.63
  -1  12   5   21.59    1.65
   1  12  -5   19.18    1.63
   0 -12   5    1.64    0.35
   0 -12   5    1.65    0.51
   0  12   5    1.83    0.50
   0  12  -5    1.46    0.45
   0  12   5    2.35    0.44
   1  12   5    1.84    0.46
  -1 -12  -5    2.35    0.52
  -1  12  -5    1.51    0.43
   1 -12   5    1.90    0.50
   1  12   5    1.75    0.48
   1 -12   5    1.54    0.38
   2 -12   5   -0.15    0.33
   2 -12   5    0.62    0.35
  -2  12  -5    0.67    0.38
  -2 -12  -5    0.24    0.39
   2  12   5    0.47    0.31
   2  12   5    0.72    0.38
   3  12   5    0.59    0.46
   3 -12   5    0.29    0.33
  -3  12  -5    1.02    0.43
   3  12   5    1.79    0.48
  -3 -12  -5    0.77    0.43
   4  12   5    4.45    0.76
   4 -12   5    3.93    0.66
  -4 -12  -5    5.12    0.76
  -4  12  -5    5.09    0.72
   4  12   5    4.24    0.73
   5 -12   5    0.44    0.44
  -5  12  -5    0.43    0.43
  -5 -12  -5    1.59    0.51
   5  12   5    1.13    0.57
  -6 -12  -5    7.27    1.00
   6 -12   5    6.29    0.97
   6  12   5    7.65    1.05
  -6  12  -5    7.24    1.00
  -6 -12  -5    8.84    0.87
  -6  13   5    4.31    0.74
  -6 -13   5    5.04    0.94
   6  13  -5    4.32    0.75
   6 -13  -5    4.43    0.81
  -5 -13   5    0.46    0.52
   5  13  -5    0.70    0.42
  -5  13   5    0.05    0.35
   5 -13  -5   -0.09    0.41
   4  13  -5    9.63    1.10
  -4 -13   5   11.19    1.18
  -4  13   5    9.17    0.98
   4 -13  -5   10.88    1.07
  -3  13   5    2.05    0.50
   3 -13  -5    1.80    0.50
  -3 -13   5    1.86    0.55
   3  13  -5    1.95    0.55
  -2 -13   5    4.91    0.79
   2 -13  -5    4.37    0.64
   2  13  -5    5.32    0.74
  -2  13   5    5.86    0.72
   2 -13  -5    5.06    0.72
  -1 -13   5    2.82    0.60
   1  13  -5    2.71    0.56
  -1  13   5    2.64    0.55
   1 -13  -5    1.89    0.53
   0 -13  -5    4.88    0.77
   0  13   5    6.59    0.80
   0 -13   5    3.79    0.72
   0  13   5    6.65    0.74
   0  13  -5    6.06    0.80
   1  13   5    1.28    0.46
   1 -13   5    1.48    0.46
  -1 -13  -5    0.93    0.45
   1  13   5    1.68    0.45
   1 -13   5    0.99    0.34
  -1  13  -5    1.12    0.44
   2  13   5    8.88    0.88
   2  13   5    7.72    0.86
  -2 -13  -5    9.39    1.04
  -2  13  -5    8.92    0.91
   2 -13   5    9.31    0.86
   3 -13   5    0.37    0.35
  -3  13  -5    0.61    0.41
   3  13   5    0.17    0.38
   3  13   5    0.53    0.41
  -3 -13  -5    0.01    0.38
  -4  13  -5    3.57    0.66
   4  13   5    4.11    0.74
  -4 -13  -5    2.39    0.65
   4 -13   5    3.47    0.64
   4  13   5    3.33    0.64
   5  13   5    6.47    0.91
   5 -13   5    6.40    0.88
  -5 -13  -5    5.60    0.89
   5  13   5    4.07    0.85
  -5  13  -5    6.45    0.90
  -6  13  -5    1.30    0.60
   6  13   5    0.84    0.55
  -6 -13  -5    0.67    0.60
   5  14  -5   -0.52    0.48
  -5 -14   5    0.72    0.63
   5 -14  -5    0.51    0.50
   4  14  -5    5.19    0.85
  -4 -14   5    6.34    0.94
   4 -14  -5    4.38    0.74
   3  14  -5    2.98    0.68
  -3  14   5    2.68    0.56
  -3 -14   5    2.43    0.61
   3 -14  -5    2.24    0.55
  -2 -14   5    7.55    0.94
  -2  14   5    7.76    0.88
   2  14  -5    7.04    0.90
   2 -14  -5    6.24    0.84
   1 -14  -5    0.90    0.47
  -1  14   5    0.06    0.32
  -1 -14   5    0.03    0.38
   1  14  -5    0.77    0.42
   0 -14  -5    3.46    0.67
   0 -14   5    2.49    0.64
   0  14  -5    2.85    0.62
   0  14   5    3.62    0.63
   1  14   5    1.32    0.45
   1 -14   5    1.29    0.37
  -1  14  -5    1.27    0.46
   1  14   5    2.01    0.53
  -1 -14  -5    1.56    0.51
   1 -14   5    1.32    0.46
  -2 -14  -5   -0.09    0.38
   2 -14   5   -0.23    0.28
  -2  14  -5    0.43    0.40
   2  14   5    0.42    0.43
   2  14   5    0.13    0.38
   3  14   5    9.26    0.96
  -3  14  -5   10.06    1.12
   3 -14   5    8.53    0.95
  -3 -14  -5   11.04    1.16
   3  14   5    9.82    1.00
   4  14   5    0.51    0.45
  -4 -14  -5    0.68    0.52
   4  14   5    1.84    0.58
   4 -14   5    0.90    0.47
  -4  14  -5    0.90    0.49
  -5 -14  -5    1.62    0.65
  -5  14  -5    0.35    0.50
   5 -14   5   -0.38    0.40
   5  14   5    0.48    0.52
   5  14   5    0.87    0.62
   5 -15  -5   -0.46    0.43
  -4 -15   5    0.84    0.62
   4 -15  -5   -0.45    0.42
   4  15  -5   -0.24    0.56
  -3 -15   5    1.89    0.56
   3  15  -5    1.62    0.60
   2  15  -5    4.02    0.73
  -2 -15   5    2.23    0.63
   1  15  -5   -0.11    0.40
   1 -15  -5    0.79    0.44
  -1 -15   5    0.12    0.40
   0  15  -5    0.79    0.49
   0 -15  -5    0.39    0.42
   0 -15   5    0.41    0.41
   1 -15   5    0.09    0.40
  -1 -15  -5    0.28    0.40
  -1  15  -5   -0.47    0.37
   2  15   5    1.24    0.51
  -2 -15  -5    2.37    0.60
  -2  15  -5    0.84    0.49
   2 -15   5    1.33    0.44
   2  15   5    0.97    0.51
   3 -15   5    0.42    0.43
   3  15   5    0.69    0.48
  -3 -15  -5    1.06    0.51
   3  15   5    0.25    0.38
  -3  15  -5    0.81    0.53
   4  15   5    0.73    0.47
   4  15   5    0.57    0.58
  -4 -15  -5    1.63    0.65
   4 -15   5    0.56    0.49
  -4  15  -5    0.79    0.53
   5  15   5    1.11    0.60
   5  15   5    0.26    0.66
   4 -16  -5    0.04    0.54
  -3 -16   5   -0.08    0.45
   3  16  -5    0.82    0.59
  -2 -16   5    3.11    0.72
   2  16  -5    3.39    0.77
  -1 -16   5   -0.07    0.38
   1  16  -5    0.75    0.54
   1 -16  -5    0.03    0.47
   0 -16   5    2.19    0.64
   0 -16  -5    3.27    0.65
   0  16  -5    2.22    0.69
  -1 -16  -5    0.34    0.43
  -1  16  -5    0.22    0.48
   1 -16   5    0.66    0.47
  -2  16  -5    1.76    0.63
  -2 -16  -5    1.20    0.54
  -3  16  -5    0.13    0.55
  -3 -16  -5   -0.09    0.43
   3 -16   5   -0.07    0.42
   4  16   5    1.10    0.67
   4 -16   5   -0.96    0.42
  -2 -17   5    0.58    0.52
   1 -17  -5    5.78    0.89
  -1 -17   5    5.40    0.91
   1  17  -5    5.26    1.00
   0 -17   5    1.61    0.52
   0  17  -5    0.26    0.58
   0 -17  -5    0.48    0.52
  -1  17  -5   -0.01    0.60
  -1 -17  -5    1.12    0.55
  -2  17  -5    1.55    0.72
   0 -18   5    5.93    0.97
   9   0  -6    6.73    1.05
  -9   0   6    3.65    0.85
  -8   0   6   24.67    1.94
   7   0  -6   19.15    1.32
  -7   0   6   18.21    1.50
  -7   0   6   16.14    1.46
  -6   0   6   14.81    1.31
   6   0  -6   14.83    1.17
  -6   0   6   19.43    1.42
  -5   0   6   23.89    1.81
  -5   0   6   27.27    1.86
   5   0  -6   25.34    1.65
  -4   0   6  744.84   46.50
   4   0  -6  756.37   44.73
   4   0  -6  756.85   42.03
  -4   0   6  749.32   46.37
  -3   0   6  452.30   25.13
   3   0  -6  452.39   26.75
  -3   0   6  469.54   27.73
  -3   0   6  421.63   27.77
  -2   0   6    4.43    0.41
  -2   0   6    3.18    0.33
  -2   0   6    4.03    0.36
   2   0  -6    3.52    0.37
  -1   0   6   62.06    3.86
   1   0  -6   58.82    3.75
   1   0  -6   64.53    3.82
  -1   0   6   59.51    3.52
   0   0  -6    1.40    0.23
   0   0   6    1.98    0.23
   0   0   6    1.77    0.21
   0   0  -6    1.74    0.19
  -1   0  -6  184.17   11.93
   1   0   6  184.61   10.79
  -1   0  -6  191.35   11.52
   1   0   6  208.71   11.90
  -2   0  -6  154.27    9.72
   2   0   6  147.41    8.76
   2   0   6  169.19    9.67
  -2   0  -6  151.34    9.34
  -3   0  -6   83.66    5.43
   3   0   6   93.16    5.67
   3   0   6   92.28    5.14
  -3   0  -6   90.50    5.73
  -4   0  -6   71.38    4.09
   4   0   6   67.77    3.89
  -4   0  -6   65.00    4.37
   4   0   6   62.69    4.29
  -5   0  -6   83.27    5.37
   5   0   6   80.57    5.29
   5   0   6   82.32    4.77
   6   0   6   42.21    3.01
   6   0   6   43.26    2.70
  -6   0  -6   46.96    3.11
   7   0   6   24.12    1.95
  -7   0  -6   27.90    2.07
  -8   0  -6    4.42    0.80
   8   0   6    2.81    0.74
   9   0   6   -0.04    0.61
   9   1  -6    3.89    0.87
  -9   1   6    2.14    0.76
  -9  -1   6    2.49    0.72
  -8   1   6    1.02    0.57
  -8   1   6    1.28    0.55
  -8  -1   6    1.33    0.54
   8  -1  -6    2.11    0.47
  -7   1   6    8.92    1.03
  -7  -1   6    8.27    1.04
   7   1  -6    9.20    0.80
   7  -1  -6    7.96    0.83
  -7  -1   6    8.80    0.97
  -7   1   6    9.08    0.99
  -6  -1   6   62.76    4.05
  -6   1   6   59.72    4.05
   6   1  -6   58.81    3.64
  -6   1   6   62.50    4.07
  -6  -1   6   67.82    4.11
   6  -1  -6   55.16    3.66
  -5   1   6    6.03    0.68
  -5   1   6    7.75    0.85
  -5  -1   6    7.24    0.63
  -5  -1   6    6.69    0.68
  -5  -1   6    8.56    0.86
   5  -1  -6    6.16    0.62
   5   1  -6    7.56    0.63
  -4  -1   6    7.58    0.79
  -4   1   6    7.91    0.68
   4   1  -6    8.38    0.62
   4  -1  -6    5.73    0.59
  -4  -1   6    7.85    0.72
   4  -1  -6    6.99    0.63
  -4   1   6    8.64    0.77
  -4  -1   6    7.45    0.65
   3  -1  -6   43.74    2.65
  -3  -1   6   44.23    2.51
  -3  -1   6   41.49    2.77
  -3  -1   6   40.16    2.74
  -3   1   6   40.65    2.74
  -3  -1   6   44.17    2.68
  -3   1   6   43.39    2.77
  -2  -1   6    0.13    0.17
   2  -1  -6    0.00    0.12
  -2  -1   6    0.09    0.11
  -2  -1   6    0.09    0.18
  -2   1   6   -0.07    0.10
  -2   1   6    0.00    0.09
  -2   1   6    0.00    0.17
  -2  -1   6    0.08    0.11
  -1   1   6  114.86    7.17
   1   1  -6  123.81    7.16
   1   1  -6  114.09    6.95
  -1   1   6  109.69    6.51
  -1  -1   6  115.86    6.52
   1  -1  -6  112.36    6.94
   0   1  -6   47.55    3.19
   0  -1  -6   52.38    3.17
   0  -1   6   53.10    2.93
   0  -1  -6   51.67    3.13
   0   1   6   48.63    2.91
   0   1   6   52.26    3.20
   0   1  -6   49.11    3.11
  -1   1  -6    2.67    0.30
   1   1   6    3.99    0.38
  -1   1  -6    2.74    0.31
   1   1   6    2.94    0.27
   1  -1   6    2.80    0.29
  -1  -1  -6    2.75    0.32
  -1  -1  -6    3.36    0.33
   2  -1   6   60.41    3.57
  -2  -1  -6   55.75    3.47
   2   1   6   57.28    3.59
  -2   1  -6   54.54    3.46
  -2  -1  -6   57.98    3.63
   2   1   6   56.91    3.24
   2  -1   6   56.08    3.27
  -2   1  -6   52.68    3.61
   3   1   6   18.39    1.24
  -3  -1  -6   16.02    1.25
   3  -1   6   17.03    1.11
  -3  -1  -6   14.97    1.13
  -3   1  -6   15.80    1.23
  -3   1  -6   16.02    1.11
   3   1   6   18.09    1.08
   3  -1   6   20.50    1.23
  -4   1  -6    1.58    0.37
   4   1   6    1.32    0.27
  -4  -1  -6    1.45    0.38
   4  -1   6    1.45    0.31
   4   1   6    1.92    0.44
  -4  -1  -6    1.78    0.27
   4  -1   6    1.49    0.42
  -4   1  -6    1.62    0.22
   5  -1   6    3.68    0.52
  -5   1  -6    4.84    0.68
   5   1   6    5.05    0.68
  -5  -1  -6    4.54    0.68
   5   1   6    5.14    0.52
   5  -1   6    5.26    0.67
   6   1   6    1.12    0.48
  -6   1  -6   -0.05    0.37
   6  -1   6   -0.23    0.38
   6  -1   6    0.09    0.30
  -6  -1  -6   -0.11    0.38
   7   1   6   11.34    1.09
  -7  -1  -6   10.23    1.13
  -7   1  -6   11.71    1.12
   7  -1   6   10.71    1.10
   8  -1   6   11.03    1.27
  -8  -1  -6   11.38    1.27
  -8   1  -6   11.59    1.18
   8   1   6   11.26    1.27
   9  -1   6    8.49    1.21
   9   2  -6    7.39    1.12
  -9   2   6    6.12    1.12
  -9  -2   6    6.79    1.07
  -8   2   6    0.81    0.54
  -8  -2   6    0.88    0.51
   8  -2  -6    0.35    0.33
   8   2  -6    1.22    0.59
  -8   2   6    0.95    0.51
   7  -2  -6   -0.01    0.26
  -7   2   6   -0.16    0.35
  -7  -2   6    0.55    0.44
  -7   2   6   -0.13    0.39
   6  -2  -6   10.52    0.95
  -6  -2   6   13.32    1.09
  -6  -2   6   13.18    1.17
  -6   2   6   12.03    1.10
   6   2  -6   11.41    0.90
  -6   2   6   11.60    1.05
   5  -2  -6   -0.25    0.17
  -5  -2   6    0.35    0.24
  -5   2   6   -0.09    0.28
  -5  -2   6    0.25    0.24
   5   2  -6    0.47    0.21
  -5   2   6   -0.09    0.25
  -5  -2   6    0.09    0.37
  -4  -2   6    5.08    0.55
   4  -2  -6    5.49    0.55
  -4  -2   6    5.84    0.56
  -4   2   6    6.02    0.63
   4  -2  -6    4.55    0.46
  -4   2   6    6.05    0.60
  -4  -2   6    6.54    0.69
  -4  -2   6    5.95    0.49
  -3  -2   6  172.88   10.21
  -3  -2   6  158.18   10.53
  -3   2   6  178.95   10.56
   3  -2  -6  164.28    9.59
  -3  -2   6  175.49   10.56
   3  -2  -6  169.50   10.16
  -3   2   6  160.37   10.55
  -3  -2   6  174.12    9.56
  -2  -2   6    0.61    0.16
  -2   2   6    0.54    0.17
   2  -2  -6    0.77    0.18
  -2   2   6    1.31    0.25
  -2  -2   6    0.84    0.22
  -2  -2   6    0.71    0.17
  -2   2   6    0.95    0.16
  -2  -2   6    1.03    0.25
  -1  -2   6   19.17    1.33
  -1  -2   6   21.26    1.24
   1   2  -6   21.35    1.32
   1  -2  -6   20.18    1.32
  -1   2   6   17.59    1.22
  -1   2   6   19.93    1.35
   0  -2  -6   82.77    4.86
   0   2   6   80.80    4.99
   0   2  -6   77.11    5.00
   0  -2   6   78.96    4.55
   0   2   6   79.20    4.53
   1   2   6  112.94    6.48
   1  -2   6  110.38    6.51
  -1   2  -6  106.15    7.18
  -1  -2  -6  116.64    6.95
  -1   2  -6  110.86    6.92
   1   2   6  120.68    7.18
  -1  -2  -6  126.88    7.19
   2   2   6  311.09   18.56
  -2  -2  -6  320.21   18.64
   2   2   6  300.12   16.78
  -2   2  -6  274.10   18.61
   2  -2   6  292.52   16.83
  -2   2  -6  302.43   17.90
  -2  -2  -6  299.38   17.92
   3   2   6    0.81    0.31
   3  -2   6    0.66    0.23
   3   2   6    0.94    0.18
  -3  -2  -6    0.41    0.25
  -3   2  -6    0.79    0.16
   3  -2   6    1.06    0.31
  -3  -2  -6    0.87    0.22
  -3   2  -6    1.04    0.28
  -4  -2  -6    9.20    0.81
   4  -2   6   10.45    0.84
  -4  -2  -6   10.86    0.97
  -4   2  -6   11.05    0.93
   4  -2   6   10.52    0.91
  -4   2  -6   12.11    0.76
   4   2   6   11.88    0.77
   4   2   6   10.33    0.93
   5  -2   6    3.23    0.47
   5  -2   6    3.42    0.55
  -5  -2  -6    2.38    0.55
   5   2   6    2.53    0.55
  -5  -2  -6    3.21    0.41
  -5   2  -6    3.11    0.55
   6   2   6   34.65    2.38
   6  -2   6   30.68    2.13
   6  -2   6   37.02    2.38
  -6   2  -6   30.92    2.38
  -6  -2  -6   32.16    2.43
   7   2   6    3.11    0.67
  -7  -2  -6    3.88    0.73
   7  -2   6    2.85    0.54
  -7   2  -6    3.20    0.63
   7  -2   6    3.16    0.68
   8   2   6    0.01    0.50
  -8  -2  -6    0.51    0.43
   8  -2   6    0.09    0.50
  -8   2  -6   -0.38    0.44
   9  -2   6    0.78    0.78
   9   3  -6    7.78    1.11
   9  -3  -6    4.43    0.75
  -9   3   6    7.49    1.04
  -9  -3   6    6.48    1.09
   8  -3  -6    2.99    0.55
  -8   3   6    2.72    0.68
  -8  -3   6    3.27    0.74
   8   3  -6    5.01    0.85
  -7  -3   6    0.78    0.45
  -7   3   6    0.84    0.47
  -7   3   6   -0.07    0.38
   7   3  -6    0.29    0.48
   7  -3  -6   -0.36    0.25
  -6   3   6   12.05    1.16
  -6   3   6   13.61    1.17
   6  -3  -6   11.44    1.03
   6   3  -6   14.82    0.99
  -6  -3   6   14.85    1.17
   5  -3  -6    1.87    0.41
  -5   3   6    2.72    0.53
  -5   3   6    3.11    0.48
   5   3  -6    2.79    0.37
  -5  -3   6    3.21    0.48
  -5  -3   6    2.72    0.42
  -4   3   6    9.12    0.85
  -4  -3   6    9.80    0.88
  -4   3   6   10.11    0.82
  -4  -3   6   10.78    0.84
   4  -3  -6    9.62    0.78
   4  -3  -6   10.05    0.73
  -4  -3   6   10.38    0.83
  -4  -3   6   10.90    0.73
  -3   3   6   16.15    1.14
   3  -3  -6   15.80    1.10
  -3   3   6   15.62    1.18
   3  -3  -6   16.34    1.10
  -3  -3   6   15.81    1.16
  -3  -3   6   18.19    1.16
  -3  -3   6   14.51    1.19
  -3  -3   6   17.16    1.04
  -2  -3   6    3.86    0.44
  -2   3   6    3.81    0.36
   2  -3  -6    3.17    0.36
   2  -3  -6    3.82    0.39
   2   3  -6    4.25    0.40
  -2   3   6    4.47    0.46
  -2  -3   6    4.89    0.38
   1   3  -6   22.68    1.44
   1  -3  -6   23.64    1.44
  -1   3   6   20.61    1.46
  -1  -3   6   20.84    1.33
  -1   3   6   20.51    1.33
  -1  -3   6   22.34    1.46
   0  -3   6    9.68    0.68
   0   3   6    9.99    0.75
   0  -3  -6   10.92    0.76
   0   3   6    9.63    0.67
   0  -3   6   10.11    0.75
   0   3  -6   11.01    0.76
   0  -3  -6    9.85    0.68
  -1   3  -6    8.07    0.69
  -1  -3  -6    9.30    0.67
  -1  -3  -6    8.75    0.69
   1   3   6    8.79    0.59
   1   3   6    9.88    0.74
   1  -3   6    9.47    0.65
  -2   3  -6   36.33    2.31
  -2  -3  -6   34.94    2.35
   2   3   6   38.31    2.14
   2   3   6   36.94    2.44
   2  -3   6   35.62    2.22
  -2   3  -6   36.36    2.43
  -2  -3  -6   40.38    2.45
   3   3   6   63.35    4.22
  -3  -3  -6   68.57    4.28
  -3   3  -6   63.31    4.25
   3  -3   6   62.63    4.19
  -3  -3  -6   67.68    4.09
   3   3   6   70.75    3.77
   3  -3   6   63.56    3.86
  -3   3  -6   67.74    4.02
  -4  -3  -6   27.98    1.87
   4   3   6   26.09    1.97
  -4  -3  -6   27.64    2.02
  -4   3  -6   31.03    2.02
   4  -3   6   27.35    1.95
   4  -3   6   27.48    1.82
   4   3   6   31.10    1.71
   5  -3   6   37.23    2.48
   5   3   6   35.13    2.49
  -5   3  -6   38.06    2.53
  -5  -3  -6   35.91    2.57
  -5  -3  -6   36.40    2.36
   5  -3   6   34.16    2.28
   6  -3   6   12.48    1.05
   6   3   6    9.61    1.02
  -6   3  -6   11.15    1.04
  -6  -3  -6   10.52    1.10
   6  -3   6   10.91    0.96
   7  -3   6    3.20    0.60
   7  -3   6    3.34    0.66
   7   3   6    3.50    0.67
  -7   3  -6    4.01    0.68
  -7  -3  -6    2.57    0.68
  -8   3  -6    3.68    0.78
  -8  -3  -6    3.68    0.76
   8  -3   6    3.73    0.76
   8   3   6    4.33    0.85
   9  -3   6    0.11    0.74
   9  -4  -6    1.28    0.46
   9   4  -6   -0.32    0.53
  -9  -4   6    1.43    0.77
   8  -4  -6    0.08    0.32
  -8   4   6    0.01    0.38
  -8  -4   6   -0.03    0.48
   8   4  -6   -0.19    0.53
  -7   4   6   29.73    2.43
   7  -4  -6   32.95    2.26
  -7  -4   6   35.66    2.46
  -7   4   6   34.56    2.48
   7   4  -6   36.84    2.54
  -6   4   6   -0.19    0.34
   6   4  -6    0.40    0.44
  -6  -4   6    0.15    0.32
   6  -4  -6    0.02    0.26
  -6   4   6   -0.07    0.32
  -5   4   6   16.08    1.33
  -5   4   6   18.38    1.31
  -5  -4   6   15.99    1.25
  -5  -4   6   17.45    1.31
   5   4  -6   16.96    1.37
   5  -4  -6   15.80    1.22
   5   4  -6   18.29    1.15
  -4   4   6   28.37    2.08
   4  -4  -6   29.64    1.93
  -4  -4   6   31.27    1.84
  -4   4   6   32.31    2.07
  -4  -4   6   31.24    2.07
   4  -4  -6   29.57    1.92
  -4  -4   6   30.47    2.04
  -3  -4   6    3.25    0.43
  -3   4   6    3.40    0.39
  -3  -4   6    3.68    0.42
  -3  -4   6    2.97    0.31
   3  -4  -6    3.10    0.34
   3  -4  -6    2.77    0.38
  -3   4   6    3.70    0.46
   2  -4  -6   -0.01    0.12
  -2  -4   6    0.11    0.11
   2   4  -6   -0.13    0.14
   2  -4  -6   -0.04    0.13
  -2   4   6    0.07    0.12
  -2   4   6    0.07    0.17
  -2  -4   6   -0.10    0.16
   1   4  -6    0.84    0.20
  -1   4   6    0.43    0.21
  -1  -4   6    0.53    0.22
  -1   4   6    0.44    0.11
   1  -4  -6    0.49    0.19
  -1  -4   6    0.65    0.16
   0  -4   6   74.86    4.51
   0   4   6   69.16    4.58
   0   4   6   69.08    4.63
   0   4  -6   76.24    4.65
   0   4   6   75.81    4.20
   0  -4  -6   75.71    4.51
   0  -4   6   73.92    4.22
   1   4   6  524.90   32.32
  -1  -4  -6  526.07   32.37
  -1  -4  -6  536.45   31.22
  -1   4  -6  493.23   32.40
   1   4   6  533.84   29.23
   1  -4   6  535.77   31.20
   1  -4   6  515.59   29.29
  -2   4  -6   53.05    3.25
   2   4   6   49.88    3.39
  -2  -4  -6   54.49    3.40
   2   4   6   54.10    3.00
   2  -4   6   52.73    3.11
  -2   4  -6   52.26    3.41
  -2  -4  -6   51.50    3.29
   3   4   6    1.67    0.39
  -3   4  -6    1.90    0.25
  -3  -4  -6    2.00    0.36
   3   4   6    1.92    0.20
  -3   4  -6    1.91    0.34
  -3  -4  -6    1.91    0.32
   3  -4   6    1.99    0.35
   4   4   6   28.13    2.05
  -4   4  -6   30.30    2.08
   4  -4   6   29.75    1.91
  -4  -4  -6   29.58    2.08
   4  -4   6   29.45    2.03
  -4  -4  -6   30.18    1.97
  -5   4  -6   15.92    1.31
   5   4   6   15.83    1.32
  -5  -4  -6   17.66    1.25
  -5  -4  -6   16.48    1.38
   5  -4   6   17.38    1.25
   5  -4   6   16.72    1.31
   6  -4   6   16.22    1.26
  -6   4  -6   17.40    1.38
   6  -4   6   16.52    1.34
  -6  -4  -6   15.12    1.40
   6   4   6   16.62    1.38
   7   4   6    1.09    0.53
  -7  -4  -6    0.74    0.50
  -7   4  -6    1.71    0.49
   7  -4   6    1.06    0.50
   7  -4   6    1.06    0.45
  -8  -4  -6    2.99    0.73
   8  -4   6    4.48    0.82
  -8   4  -6    3.22    0.75
   8   4   6    4.05    0.86
   8  -4   6    4.18    0.69
   9  -4   6    3.92    0.98
   9   5  -6    3.92    0.90
  -9  -5   6    3.91    0.95
   9  -5  -6    2.99    0.63
  -8   5   6   -0.31    0.41
   8   5  -6    1.39    0.64
  -8  -5   6    0.15    0.50
   8  -5  -6    0.00    0.28
  -7  -5   6    0.93    0.48
  -7   5   6    1.37    0.50
   7   5  -6    0.31    0.52
   7  -5  -6    1.02    0.39
  -6   5   6   15.02    1.23
  -6  -5   6   15.34    1.24
  -6  -5   6   15.67    1.21
  -6   5   6   13.30    1.25
   6  -5  -6   16.03    1.23
   6   5  -6   14.39    1.29
   5  -5  -6    9.25    0.80
  -5   5   6    8.03    0.84
  -5  -5   6    8.23    0.79
   5   5  -6    8.11    0.86
  -5  -5   6    9.47    0.82
  -5   5   6    9.53    0.82
  -4  -5   6    0.51    0.18
   4  -5  -6    0.60    0.25
   4   5  -6    0.56    0.32
  -4   5   6    0.77    0.30
  -4  -5   6    0.64    0.28
  -4  -5   6    0.76    0.29
  -4   5   6    0.79    0.34
  -3   5   6    0.13    0.22
  -3  -5   6    0.07    0.12
  -3   5   6    0.22    0.17
   3  -5  -6   -0.27    0.13
  -3  -5   6    0.24    0.22
   3  -5  -6   -0.04    0.14
  -2  -5   6    1.13    0.30
  -2   5   6    0.83    0.18
  -2  -5   6    0.92    0.18
   2  -5  -6    1.10    0.24
   2  -5  -6    0.91    0.23
  -2   5   6    1.24    0.29
   2   5  -6    0.95    0.24
  -1  -5   6    1.21    0.21
  -1   5   6    1.23    0.18
   1  -5  -6    0.96    0.20
   1   5  -6    1.31    0.26
  -1  -5   6    0.80    0.26
   1  -5  -6    1.30    0.25
  -1   5   6    1.03    0.28
   0  -5   6   10.58    0.76
   0   5  -6   12.50    0.86
   0   5   6   11.71    0.77
   0  -5  -6   10.15    0.73
   0  -5   6   11.24    0.85
   0   5   6    9.95    0.86
   0  -5  -6   11.47    0.84
   1  -5   6  102.22    5.92
   1  -5   6  106.42    6.30
  -1   5  -6  105.67    6.53
  -1  -5  -6   99.85    6.31
  -1  -5  -6  105.60    6.49
   1   5   6  104.40    5.85
   1   5   6   99.45    6.51
   2  -5   6   14.50    1.05
  -2  -5  -6   14.22    1.09
   2  -5   6   15.64    1.06
  -2  -5  -6   15.43    1.11
  -2   5  -6   16.36    1.13
   2   5   6   14.54    1.14
   2   5   6   15.36    0.92
   3  -5   6   17.26    1.21
  -3  -5  -6   16.96    1.27
  -3   5  -6   18.10    1.18
  -3   5  -6   17.43    1.30
  -3  -5  -6   19.03    1.28
   3   5   6   16.30    1.30
   4   5   6    1.34    0.41
   4  -5   6    1.73    0.37
  -4  -5  -6    1.21    0.32
  -4  -5  -6    1.24    0.34
  -4   5  -6    1.39    0.37
   5  -5   6   20.22    1.58
  -5  -5  -6   21.42    1.62
  -5   5  -6   21.17    1.59
  -5  -5  -6   20.92    1.51
   5   5   6   20.50    1.61
   5  -5   6   21.63    1.50
   6  -5   6    0.85    0.40
   6   5   6    0.49    0.42
  -6   5  -6    0.46    0.34
  -6  -5  -6    0.26    0.38
   6  -5   6    0.77    0.37
   7   5   6   -0.30    0.41
  -7  -5  -6    0.44    0.39
   7  -5   6    0.24    0.33
  -7   5  -6    0.01    0.34
   7  -5   6   -0.15    0.39
   8   5   6    1.16    0.65
   8  -5   6    0.82    0.59
  -8   5  -6    0.66    0.52
  -8  -5  -6    1.97    0.55
   8  -5   6    1.22    0.49
   9   6  -6   -0.05    0.66
   8   6  -6    0.03    0.55
   8  -6  -6   -0.13    0.33
  -8  -6   6    0.91    0.55
  -8   6   6    0.23    0.44
   7  -6  -6    2.87    0.58
  -7   6   6    3.55    0.70
   7   6  -6    4.07    0.79
  -7  -6   6    4.50    0.71
  -6  -6   6    0.58    0.39
   6   6  -6    0.13    0.42
   6  -6  -6    0.01    0.27
  -6   6   6    0.05    0.38
  -6  -6   6    0.11    0.33
  -5  -6   6    2.16    0.45
   5  -6  -6    2.38    0.44
  -5   6   6    2.51    0.48
  -5  -6   6    2.14    0.47
   5   6  -6    1.84    0.49
  -5   6   6    2.43    0.49
   4   6  -6    6.14    0.64
  -4  -6   6    4.59    0.64
   4  -6  -6    6.13    0.65
  -4  -6   6    6.78    0.65
  -4   6   6    6.61    0.72
  -4   6   6    6.29    0.60
  -4  -6   6    6.19    0.50
  -3  -6   6   37.57    2.41
   3  -6  -6   37.24    2.31
   3   6  -6   39.43    2.45
  -3  -6   6   35.56    2.14
  -3   6   6   32.44    2.35
  -3   6   6   35.66    2.45
   3  -6  -6   37.38    2.27
  -2  -6   6   29.73    1.66
   2  -6  -6   26.71    1.71
  -2   6   6   26.08    1.86
   2   6  -6   28.75    1.86
  -2   6   6   25.18    1.77
   2  -6  -6   26.28    1.78
  -2  -6   6   29.09    1.87
  -1   6   6    3.38    0.35
   1  -6  -6    3.77    0.38
  -1  -6   6    3.84    0.48
   1  -6  -6    3.44    0.42
   1   6  -6    4.21    0.46
  -1  -6   6    3.74    0.37
  -1   6   6    3.91    0.47
   0   6   6   26.87    1.77
   0  -6   6   26.90    1.74
   0  -6   6   26.49    1.61
   0   6   6   24.08    1.67
   0   6  -6   27.06    1.76
   0  -6  -6   25.60    1.73
   0  -6  -6   24.22    1.55
  -1  -6  -6    0.25    0.21
   1  -6   6    1.03    0.26
  -1  -6  -6    0.57    0.13
   1  -6   6    0.83    0.23
   1   6   6    0.32    0.24
  -1   6  -6    0.73    0.24
  -1  -6  -6    1.11    0.23
   2  -6   6    0.04    0.17
   2  -6   6   -0.01    0.17
   2   6   6   -0.04    0.22
  -2  -6  -6    0.11    0.17
  -2   6  -6   -0.06    0.19
  -2  -6  -6   -0.13    0.18
  -2  -6  -6    0.05    0.09
  -3  -6  -6    2.87    0.43
   3   6   6    1.56    0.40
   3  -6   6    2.13    0.39
  -3   6  -6    1.98    0.38
  -3  -6  -6    2.18    0.37
  -4  -6  -6    0.35    0.27
  -4  -6  -6    0.91    0.30
   4   6   6    0.35    0.36
  -4   6  -6    0.71    0.29
   4  -6   6    0.38    0.30
  -5   6  -6    0.70    0.37
  -5  -6  -6    0.51    0.34
  -5  -6  -6    0.81    0.37
   5   6   6    0.21    0.42
   5  -6   6    0.91    0.39
   5  -6   6    0.74    0.37
   6   6   6   -0.08    0.37
  -6  -6  -6   -0.04    0.33
   6  -6   6    0.54    0.38
  -6   6  -6   -0.08    0.28
   6  -6   6   -0.27    0.36
  -7   6  -6    0.09    0.36
   7  -6   6   -0.31    0.32
   7   6   6    0.07    0.45
  -7  -6  -6    0.16    0.36
   7  -6   6    0.25    0.41
  -8   6  -6    0.14    0.48
   8  -6   6   -0.23    0.36
  -8  -6  -6    0.03    0.40
   8   6   6   -0.11    0.52
   8  -7  -6    6.10    0.83
   8   7  -6    5.57    0.97
  -8   7   6    6.62    0.94
  -8  -7   6    5.71    0.94
  -7  -7   6    0.50    0.43
   7   7  -6    1.20    0.60
   7  -7  -6    0.51    0.34
  -7   7   6    0.10    0.43
  -6  -7   6    7.63    0.86
  -6  -7   6    8.42    0.90
   6   7  -6    7.16    0.95
   6  -7  -6    8.16    0.85
  -6   7   6    7.80    0.93
   5   7  -6    0.96    0.42
   5  -7  -6    1.56    0.40
  -5   7   6    1.10    0.45
  -5  -7   6    2.15    0.47
  -5  -7   6    2.25    0.48
  -4   7   6    2.85    0.44
   4  -7  -6    2.58    0.44
  -4   7   6    2.49    0.50
  -4  -7   6    2.79    0.50
  -3  -7   6   60.42    3.74
   3   7  -6   60.60    3.82
  -3   7   6   54.40    3.72
   3  -7  -6   54.61    3.49
  -3  -7   6   61.45    3.39
  -3   7   6   55.02    3.80
   3  -7  -6   61.51    3.64
   2  -7  -6    2.66    0.37
   2   7  -6    2.78    0.39
  -2   7   6    2.46    0.32
  -2   7   6    2.85    0.43
  -2  -7   6    2.24    0.42
  -2  -7   6    2.31    0.29
   2  -7  -6    2.41    0.35
   1  -7  -6   32.51    2.05
  -1  -7   6   32.69    1.89
   1  -7  -6   32.26    1.91
  -1   7   6   28.29    2.01
  -1   7   6   32.15    2.12
   1   7  -6   29.86    2.08
  -1  -7   6   30.45    2.08
   0  -7  -6    5.05    0.51
   0   7  -6    4.28    0.51
   0  -7   6    4.75    0.53
   0   7   6    4.22    0.42
   0  -7  -6    3.84    0.39
   0  -7   6    5.01    0.45
   0   7   6    4.93    0.54
  -1  -7  -6    1.65    0.22
   1  -7   6    2.05    0.34
   1   7   6    2.08    0.32
  -1   7  -6    2.06    0.35
   1  -7   6    1.37    0.29
   1   7   6    1.95    0.38
  -1  -7  -6    1.50    0.34
   2   7   6   28.66    2.20
   2  -7   6   33.48    2.12
  -2  -7  -6   33.60    2.19
   2  -7   6   33.56    2.05
  -2   7  -6   32.81    2.22
  -2  -7  -6   32.59    2.19
  -3  -7  -6   36.34    2.45
   3   7   6   34.01    2.46
  -3  -7  -6   37.11    2.43
   3  -7   6   36.27    2.31
   3  -7   6   36.24    2.29
  -3   7  -6   37.16    2.49
  -4   7  -6    0.10    0.25
   4  -7   6    0.12    0.27
   4   7   6   -0.36    0.30
  -4  -7  -6    0.02    0.26
  -4  -7  -6   -0.28    0.19
   5  -7   6   17.85    1.38
  -5   7  -6   17.59    1.43
  -5  -7  -6   18.99    1.44
  -5  -7  -6   21.06    1.44
   5   7   6   15.64    1.43
   6  -7   6    4.45    0.71
  -6  -7  -6    6.39    0.78
   6   7   6    6.73    0.90
  -6  -7  -6    7.14    0.79
  -6   7  -6    5.57    0.78
   7   7   6    2.73    0.71
  -7   7  -6    3.35    0.67
  -7  -7  -6    3.95    0.65
   7  -7   6    3.93    0.67
  -8  -7  -6    3.88    0.70
  -8   7  -6    2.50    0.68
   8   7   6    2.95    0.77
   8  -7   6    1.78    0.55
   8  -8  -6    1.75    0.54
  -8  -8   6    1.41    0.66
   8   8  -6    2.32    0.73
  -8   8   6    1.79    0.61
  -7   8   6    9.25    1.07
   7   8  -6    8.39    1.07
  -7  -8   6    9.55    1.04
   7  -8  -6    8.99    0.97
  -6  -8   6    6.11    0.81
   6  -8  -6    5.67    0.75
  -6  -8   6    6.68    0.81
  -6   8   6    6.83    0.87
   6   8  -6    4.78    0.79
  -5  -8   6    6.23    0.78
   5  -8  -6    6.89    0.75
  -5   8   6    7.14    0.84
   5   8  -6    6.01    0.75
   4   8  -6    3.62    0.58
  -4   8   6    2.78    0.54
   4  -8  -6    2.61    0.48
  -4  -8   6    3.81    0.58
   3   8  -6   11.42    0.96
  -3   8   6   11.27    0.89
   3  -8  -6   10.87    0.89
   3  -8  -6   11.46    0.91
  -3  -8   6   11.06    0.78
  -3   8   6   11.60    0.97
  -3  -8   6   12.15    1.02
  -2   8   6    0.98    0.34
   2  -8  -6    0.76    0.25
   2   8  -6    1.33    0.33
  -2  -8   6    0.90    0.21
   2  -8  -6    0.64    0.28
  -2   8   6    1.13    0.26
  -2  -8   6    1.33    0.38
  -1  -8   6   16.40    1.02
  -1   8   6   14.50    1.06
   1  -8  -6   15.11    1.03
   1   8  -6   14.25    1.12
  -1  -8   6   14.90    1.17
  -1   8   6   15.72    1.17
   1  -8  -6   13.87    1.11
   0  -8  -6   -0.13    0.13
   0   8   6    0.30    0.20
   0  -8   6    0.35    0.26
   0  -8   6   -0.16    0.16
   0  -8  -6   -0.34    0.17
   0   8   6    0.00    0.22
   0   8  -6    0.11    0.21
   1   8   6   71.49    4.49
  -1   8  -6   64.78    4.53
   1   8   6   66.82    4.52
  -1  -8  -6   74.31    4.44
   1  -8   6   71.24    4.14
   1  -8   6   73.29    4.40
   2   8   6  124.35    8.45
   2  -8   6  134.89    8.15
  -2  -8  -6  137.41    8.23
  -2   8  -6  129.38    8.49
  -2  -8  -6  142.77    8.48
   2  -8   6  135.69    7.72
  -3  -8  -6    0.77    0.35
   3  -8   6    0.81    0.34
   3   8   6    1.43    0.43
  -3   8  -6    1.10    0.37
   4   8   6    6.29    0.78
   4  -8   6    4.90    0.68
  -4  -8  -6    5.87    0.71
  -4  -8  -6    5.70    0.69
  -4   8  -6    7.53    0.79
  -5  -8  -6   13.73    1.10
  -5  -8  -6   10.36    1.02
   5   8   6   11.22    1.11
  -5   8  -6   11.70    1.06
   5  -8   6   13.54    1.10
  -6  -8  -6    2.08    0.55
   6  -8   6    2.39    0.57
  -6   8  -6    1.77    0.50
  -6  -8  -6    2.52    0.50
   6   8   6    3.43    0.69
   7   8   6    4.57    0.87
  -7  -8  -6    4.74    0.71
   7  -8   6    4.31    0.76
  -7   8  -6    4.31    0.73
   8  -8   6    3.19    0.68
  -8  -8  -6    2.85    0.64
  -8   9   6    1.99    0.64
  -8  -9   6    2.83    0.77
  -7   9   6    0.59    0.48
  -7  -9   6    1.84    0.58
   7  -9  -6    0.46    0.40
  -6  -9   6    3.35    0.64
  -6   9   6    1.81    0.54
   6  -9  -6    2.27    0.52
   5   9  -6    0.50    0.43
  -5  -9   6    0.26    0.38
   5  -9  -6    0.55    0.34
  -5   9   6    0.42    0.40
   4   9  -6    9.88    0.96
  -4   9   6   10.01    0.94
  -4  -9   6   10.91    1.02
   4  -9  -6   10.37    0.93
   3  -9  -6   16.86    1.21
  -3  -9   6   16.88    1.33
   3  -9  -6   16.15    1.21
  -3   9   6   15.19    1.25
   3   9  -6   15.68    1.27
   2  -9  -6    3.23    0.48
  -2   9   6    3.10    0.50
  -2   9   6    3.92    0.45
   2  -9  -6    3.67    0.47
   2   9  -6    3.06    0.50
  -2  -9   6    3.07    0.36
  -2  -9   6    4.36    0.59
   1  -9  -6   14.50    1.13
  -1   9   6   13.04    1.05
   1  -9  -6   15.01    1.04
   1   9  -6   13.06    1.10
  -1   9   6   14.06    1.15
  -1  -9   6   15.98    1.00
  -1  -9   6   14.96    1.17
   0  -9   6   10.98    0.96
   0   9   6   11.49    0.88
   0  -9  -6   12.58    0.84
   0   9  -6   11.35    0.94
   0  -9  -6   10.77    0.96
   0   9   6   10.07    0.95
   0  -9   6   12.07    0.86
   1   9   6    5.23    0.57
   1  -9   6    5.22    0.59
  -1   9  -6    4.67    0.59
   1  -9   6    3.38    0.50
  -1  -9  -6    4.65    0.62
   1   9   6    4.84    0.60
   2   9   6   48.45    3.26
  -2   9  -6   50.94    3.32
  -2  -9  -6   49.58    3.24
   2  -9   6   50.73    3.17
   2  -9   6   50.82    3.04
   2   9   6   45.76    3.29
  -3  -9  -6   12.49    1.20
  -3   9  -6   14.53    1.23
  -3  -9  -6   17.24    1.24
   3   9   6   16.63    1.26
   3  -9   6   13.93    1.15
  -4  -9  -6   20.43    1.62
  -4  -9  -6   20.99    1.61
   4  -9   6   22.28    1.57
   4   9   6   21.09    1.66
  -4   9  -6   22.75    1.66
  -5   9  -6    3.55    0.60
   5  -9   6    3.63    0.64
  -5  -9  -6    3.94    0.64
  -5  -9  -6    4.11    0.60
   5   9   6    3.84    0.72
   6  -9   6    5.17    0.78
   6   9   6    7.15    0.94
  -6   9  -6    6.15    0.84
  -6  -9  -6    6.54    0.80
  -6  -9  -6    5.30    0.80
  -7  -9  -6    2.15    0.54
   7  -9   6    2.20    0.61
   7   9   6    1.69    0.67
  -7   9  -6    1.68    0.60
  -7  10   6   -0.06    0.40
   7 -10  -6    0.33    0.42
  -6  10   6    1.13    0.43
  -6 -10   6    0.78    0.49
   6 -10  -6   -0.16    0.35
   6  10  -6    0.98    0.50
   5 -10  -6    0.60    0.37
   5  10  -6    0.63    0.45
  -5 -10   6    1.03    0.47
  -5  10   6    0.41    0.39
   4 -10  -6    2.43    0.52
  -4 -10   6    3.30    0.63
  -4  10   6    3.43    0.58
   4  10  -6    3.45    0.60
   3 -10  -6    1.30    0.39
   3  10  -6    1.80    0.44
  -3 -10   6    1.24    0.48
  -3  10   6    1.67    0.43
   2  10  -6    1.32    0.37
  -2 -10   6    1.17    0.41
  -2  10   6    0.52    0.33
   2 -10  -6    0.42    0.31
   2 -10  -6    0.94    0.31
  -1 -10   6   14.74    1.28
   1 -10  -6   16.54    1.15
  -1  10   6   17.05    1.20
   1  10  -6   13.94    1.22
  -1  10   6   19.65    1.33
  -1 -10   6   15.63    1.09
   1 -10  -6   15.00    1.24
   0  10   6   13.71    1.12
   0 -10   6   13.98    0.99
   0 -10  -6   12.99    1.11
   0  10   6   13.14    1.04
   0 -10   6   13.04    1.12
   0  10  -6   13.33    1.09
   1  10   6   29.53    2.29
   1 -10   6   32.92    2.29
   1  10   6   36.07    2.29
  -1  10  -6   33.20    2.34
  -1 -10  -6   34.25    2.32
   1 -10   6   35.19    2.15
   2 -10   6    0.74    0.35
   2  10   6    0.88    0.47
   2 -10   6    0.36    0.32
  -2 -10  -6    0.74    0.38
  -2  10  -6    1.25    0.40
   2  10   6    0.82    0.32
   3  10   6    9.64    0.95
  -3  10  -6    8.79    0.88
  -3 -10  -6    9.98    0.95
   3 -10   6    8.66    0.86
  -4  10  -6    4.41    0.64
  -4 -10  -6    4.12    0.66
   4  10   6    4.05    0.71
   4 -10   6    3.87    0.62
  -5 -10  -6    1.48    0.42
   5 -10   6    0.80    0.38
  -5 -10  -6    0.29    0.41
   5  10   6    0.98    0.52
  -5  10  -6    0.92    0.40
  -6  10  -6   -0.15    0.36
   6  10   6    0.00    0.49
  -6 -10  -6   -0.03    0.36
   6 -10   6   -0.59    0.35
  -6 -10  -6    0.19    0.35
  -7  10  -6    5.39    0.89
   7  10   6    6.09    1.02
  -7 -10  -6    6.49    0.81
   7 -10   6    6.00    0.89
  -7 -11   6   -0.27    0.59
   7  11  -6    0.86    0.56
   7 -11  -6    0.28    0.51
  -7  11   6    0.22    0.45
  -6 -11   6   11.93    1.19
  -6  11   6   10.12    1.07
   6 -11  -6   11.21    1.16
   6  11  -6   11.15    1.14
   5 -11  -6    3.30    0.64
  -5 -11   6    4.17    0.74
   5  11  -6    4.42    0.73
  -5  11   6    5.19    0.74
  -4 -11   6    6.25    0.87
   4  11  -6    7.91    0.88
   4 -11  -6    6.14    0.78
  -4  11   6    6.25    0.82
   3  11  -6   35.83    2.73
  -3 -11   6   43.11    2.80
   3 -11  -6   41.91    2.58
  -3  11   6   38.71    2.72
   2 -11  -6    0.89    0.35
  -2 -11   6    0.22    0.37
   2  11  -6    1.24    0.40
  -2  11   6    0.76    0.36
   2 -11  -6    1.09    0.36
   1  11  -6    1.44    0.41
  -1  11   6    1.65    0.46
   1 -11  -6    0.68    0.38
  -1 -11   6    1.06    0.27
  -1 -11   6    1.43    0.47
   1 -11  -6    0.69    0.32
   0  11  -6   22.28    1.67
   0  11   6   20.78    1.59
   0 -11   6   23.13    1.69
   0 -11  -6   24.89    1.71
   0 -11   6   22.84    1.50
   0  11   6   21.47    1.67
   1 -11   6   31.34    2.18
   1 -11   6   35.25    2.38
  -1  11  -6   34.80    2.42
   1  11   6   36.94    2.37
   1  11   6   32.63    2.41
  -1 -11  -6   35.32    2.41
  -2  11  -6   37.75    2.74
   2 -11   6   41.35    2.65
   2  11   6   39.86    2.70
  -2 -11  -6   39.75    2.73
   2  11   6   36.63    2.72
   2 -11   6   41.88    2.53
   3  11   6    3.99    0.62
   3 -11   6    3.35    0.56
  -3 -11  -6    2.77    0.58
   3  11   6    2.61    0.63
  -3  11  -6    2.92    0.55
  -4 -11  -6    2.64    0.52
   4  11   6    2.04    0.60
  -4 -11  -6    2.28    0.54
  -4  11  -6    2.50    0.53
   4 -11   6    1.72    0.47
   5 -11   6    3.51    0.66
   5  11   6    4.12    0.76
  -5  11  -6    3.44    0.64
  -5 -11  -6    4.11    0.63
  -5 -11  -6    2.99    0.67
  -6 -11  -6    5.47    0.70
  -6 -11  -6    4.40    0.76
  -6  11  -6    2.96    0.70
   6 -11   6    4.06    0.72
   6  11   6    4.63    0.85
  -7 -11  -6    0.15    0.32
  -7 -12   6    5.44    0.97
  -7  12   6    4.05    0.79
  -6 -12   6    0.54    0.58
   6 -12  -6   -0.59    0.44
  -6  12   6    0.53    0.41
   6  12  -6    0.98    0.46
   5 -12  -6    0.24    0.44
  -5  12   6    1.24    0.49
  -5 -12   6    0.76    0.50
   5  12  -6    1.50    0.51
  -4 -12   6   13.77    1.31
  -4  12   6   12.86    1.20
   4  12  -6   14.28    1.24
   4 -12  -6   16.21    1.26
   3 -12  -6    1.96    0.49
  -3  12   6    1.90    0.47
  -3 -12   6    1.77    0.58
   3  12  -6    2.04    0.53
   2  12  -6    4.32    0.65
   2 -12  -6    4.09    0.61
   2 -12  -6    3.28    0.55
  -2 -12   6    4.81    0.73
  -2  12   6    3.91    0.63
   1  12  -6    3.46    0.57
  -1  12   6    3.02    0.58
  -1 -12   6    3.04    0.63
   1 -12  -6    3.85    0.61
   0 -12   6    3.19    0.60
   0  12   6    3.35    0.61
   0 -12  -6    3.53    0.61
   0 -12   6    3.00    0.44
   0  12  -6    3.56    0.60
  -1  12  -6    0.45    0.39
   1  12   6    0.45    0.39
  -1 -12  -6    0.41    0.37
   1 -12   6    0.33    0.27
   1 -12   6    0.94    0.39
   1  12   6    0.58    0.35
   2 -12   6    3.36    0.54
  -2  12  -6    3.15    0.58
   2 -12   6    2.53    0.51
  -2 -12  -6    3.26    0.63
   2  12   6    2.35    0.53
   2  12   6    3.30    0.55
  -3 -12  -6    7.71    0.92
   3 -12   6    7.41    0.84
  -3  12  -6    8.21    0.92
   3  12   6    8.38    0.99
   3  12   6    8.12    0.85
  -4 -12  -6    6.36    0.84
   4  12   6    5.17    0.80
   4  12   6    4.35    0.74
   4 -12   6    4.22    0.68
  -4  12  -6    5.87    0.79
  -5  12  -6    3.28    0.69
  -5 -12  -6    2.49    0.65
  -5 -12  -6    3.08    0.60
   5  12   6    3.35    0.72
   5 -12   6    2.88    0.62
  -6 -12  -6    1.41    0.45
  -6 -12  -6    0.81    0.56
  -6  12  -6    1.08    0.54
   6  12   6    1.04    0.55
   6 -12   6    0.68    0.53
   6 -13  -6    0.77    0.56
  -6  13   6    0.94    0.45
  -6 -13   6    0.74    0.67
   6  13  -6    1.97    0.56
  -5 -13   6    0.19    0.48
   5  13  -6    0.23    0.38
   5 -13  -6   -0.38    0.39
  -5  13   6    0.11    0.37
   4 -13  -6    2.08    0.57
  -4 -13   6    2.68    0.70
  -4  13   6    2.09    0.55
   4  13  -6    1.79    0.53
   3  13  -6    2.12    0.53
  -3  13   6    1.22    0.41
   3 -13  -6    1.65    0.49
  -3 -13   6    0.70    0.47
  -2  13   6    0.31    0.33
  -2 -13   6    0.49    0.44
   2  13  -6    0.51    0.37
   2 -13  -6    0.74    0.38
   2 -13  -6   -0.19    0.29
  -1 -13   6    1.06    0.47
  -1  13   6    1.91    0.47
   1 -13  -6    1.08    0.44
   1  13  -6    1.09    0.46
   0  13   6    2.43    0.56
   0  13  -6    4.26    0.63
   0 -13   6    3.20    0.45
   0 -13   6    3.27    0.63
   0 -13  -6    3.04    0.59
   1 -13   6    1.85    0.42
   1  13   6    2.75    0.57
  -1 -13  -6    2.01    0.54
   1 -13   6    2.57    0.55
  -1  13  -6    2.77    0.57
   2 -13   6    0.12    0.32
   2  13   6    0.79    0.38
  -2 -13  -6    1.40    0.50
  -2  13  -6    1.32    0.42
   2  13   6    0.34    0.38
   3  13   6    0.98    0.46
   3  13   6    0.51    0.46
  -3  13  -6    1.35    0.49
  -3 -13  -6    0.65    0.47
   3 -13   6    1.53    0.46
   4  13   6    0.00    0.40
   4 -13   6    0.21    0.37
   4  13   6    0.24    0.47
  -4 -13  -6    0.40    0.46
  -4  13  -6    0.32    0.41
   5  13   6    0.24    0.45
   5 -13   6    0.55    0.47
  -5 -13  -6    0.42    0.50
  -5  13  -6    0.52    0.50
   5  13   6   -0.23    0.51
   6  13   6    0.44    0.55
  -6 -13  -6    0.36    0.56
  -5 -14   6    0.62    0.59
   5 -14  -6   -0.33    0.41
  -5  14   6   -0.22    0.35
   5  14  -6   -0.50    0.32
  -4 -14   6    0.08    0.54
   4 -14  -6    0.05    0.43
   4  14  -6    0.69    0.44
  -4  14   6    1.22    0.43
   3 -14  -6    0.92    0.45
  -3 -14   6    0.23    0.44
   3  14  -6    1.61    0.57
  -3  14   6    1.07    0.43
  -2  14   6    3.60    0.65
   2 -14  -6    3.96    0.68
  -2 -14   6    3.26    0.69
   2  14  -6    3.70    0.70
   1  14  -6    8.08    0.97
  -1 -14   6    9.94    1.06
  -1  14   6    8.87    0.97
   1 -14  -6    7.68    0.97
   0 -14   6    2.07    0.57
   0  14  -6    1.42    0.48
   0  14   6    0.89    0.45
   0 -14  -6    1.62    0.51
   1 -14   6    1.20    0.39
   1  14   6    2.29    0.53
   1 -14   6    2.17    0.53
  -1  14  -6    1.27    0.50
  -1 -14  -6    1.92    0.53
   2  14   6    0.71    0.45
  -2 -14  -6    0.12    0.41
  -2  14  -6    0.87    0.44
   2 -14   6    0.15    0.31
   3 -14   6    0.50    0.36
  -3 -14  -6    1.96    0.61
   3  14   6    0.35    0.38
   3  14   6    0.37    0.40
  -3  14  -6    0.42    0.46
   4  14   6    1.59    0.58
  -4  14  -6    2.34    0.64
  -4 -14  -6    2.64    0.69
   4 -14   6    3.09    0.66
   4  14   6    3.26    0.69
   5  14   6    2.86    0.66
  -5  14  -6    1.73    0.61
  -5 -14  -6    1.99    0.69
   5 -14   6    1.87    0.63
   5  14   6    0.36    0.62
   5 -15  -6    3.26    0.75
   4  15  -6    0.92    0.62
  -4 -15   6   -0.02    0.54
   4 -15  -6    0.82    0.55
  -3 -15   6    3.92    0.76
   3  15  -6    3.62    0.76
  -2 -15   6    0.57    0.50
  -2  15   6    0.93    0.42
   2  15  -6    0.87    0.50
   1 -15  -6    3.28    0.65
   1  15  -6    3.77    0.71
  -1  15   6    2.55    0.60
  -1 -15   6    3.72    0.72
   0  15   6    7.07    0.94
   0 -15  -6    7.22    0.92
   0  15  -6    5.57    0.89
   0 -15   6    6.27    0.90
   1 -15   6    1.07    0.45
  -1 -15  -6   -0.01    0.35
   1  15   6    0.48    0.40
  -1  15  -6    0.96    0.49
  -2 -15  -6    0.40    0.46
   2 -15   6    0.25    0.32
   2  15   6    0.71    0.42
  -2  15  -6    0.42    0.46
  -3  15  -6    2.53    0.71
   3  15   6    2.33    0.56
   3 -15   6    2.28    0.58
  -3 -15  -6    2.87    0.70
  -4  15  -6    0.18    0.47
   4 -15   6    0.92    0.53
  -4 -15  -6    0.07    0.52
   4  15   6    0.61    0.46
   5  15   6    8.18    1.09
   3  16  -6   -0.29    0.51
  -3 -16   6   -0.61    0.41
  -2 -16   6    2.12    0.65
   2  16  -6    3.31    0.78
  -1 -16   6    7.49    0.98
   1  16  -6    5.77    0.96
   1 -16  -6    7.86    0.97
   0 -16   6    0.61    0.47
   0  16  -6    0.45    0.53
   0 -16  -6    0.30    0.43
  -1  16  -6    2.18    0.69
  -1 -16  -6    2.00    0.58
   1 -16   6    1.33    0.54
  -2 -16  -6    1.60    0.53
  -2  16  -6    0.02    0.52
  -3  16  -6    4.58    0.95
   3 -16   6    5.67    0.82
  -3 -16  -6    7.02    0.97
  -1 -17   6    0.56    0.50
   1  17  -6    0.28    0.67
   1 -17  -6    0.52    0.49
   0 -17  -6    0.09    0.40
   0  17  -6    1.06    0.64
   0 -17   6    0.25    0.44
  -1  17  -6   -0.59    0.56
  -1 -17  -6    0.65    0.47
   3 -17   6    0.24    0.52
  -8   0   7    0.37    0.57
  -8   0   7   -0.27    0.42
  -7   0   7    0.10    0.39
   7   0  -7    0.11    0.28
  -7   0   7   -0.43    0.44
   6   0  -7    0.54    0.30
  -6   0   7    0.13    0.35
  -6   0   7    1.02    0.52
  -5   0   7   -0.09    0.25
   5   0  -7    0.11    0.21
   5   0  -7    0.07    0.20
  -5   0   7    0.46    0.34
   4   0  -7   -0.09    0.20
   4   0  -7    0.38    0.19
  -4   0   7    0.45    0.28
  -4   0   7    0.09    0.23
  -3   0   7    0.04    0.21
  -3   0   7    0.09    0.15
   3   0  -7   -0.10    0.17
  -3   0   7    0.39    0.17
  -2   0   7    0.06    0.12
  -2   0   7   -0.04    0.09
   2   0  -7   -0.12    0.13
  -2   0   7   -0.03    0.16
  -1   0   7    0.07    0.11
   1   0  -7   -0.04    0.09
  -1   0   7   -0.15    0.12
   1   0  -7   -0.17    0.12
   0   0  -7   -0.04    0.12
   0   0   7    0.04    0.10
   0   0  -7    0.04    0.09
   0   0   7   -0.07    0.11
   1   0   7   -0.08    0.14
  -1   0  -7    0.09    0.13
   1   0   7    0.10    0.12
  -1   0  -7   -0.05    0.11
   2   0   7   -0.04    0.11
   2   0   7   -0.01    0.17
  -2   0  -7   -0.13    0.13
  -2   0  -7   -0.03    0.12
   3   0   7    0.02    0.13
   3   0   7   -0.08    0.20
  -3   0  -7    0.08    0.14
  -3   0  -7    0.09    0.20
   4   0   7    0.05    0.28
   4   0   7    0.17    0.21
  -4   0  -7    0.06    0.15
  -4   0  -7    0.13    0.25
  -5   0  -7   -0.08    0.32
   5   0   7    0.06    0.32
   5   0   7    0.29    0.26
  -6   0  -7   -0.18    0.38
   6   0   7    0.04    0.41
   7   0   7    0.43    0.42
  -7   0  -7    0.07    0.43
  -8   0  -7    1.00    0.49
   8   0   7    0.18    0.49
  -9  -1   7    0.38    0.62
   9   1  -7    0.77    0.69
  -8   1   7    7.08    1.01
  -8  -1   7    7.86    0.97
   8  -1  -7    6.72    0.82
  -8   1   7    6.91    0.95
  -7   1   7    9.52    1.10
   7   1  -7    9.42    0.83
  -7  -1   7    9.79    1.09
   7  -1  -7    8.45    0.83
  -7  -1   7    9.00    0.92
  -7   1   7    8.85    0.95
  -6  -1   7    5.76    0.70
  -6   1   7    5.44    0.71
   6  -1  -7    3.60    0.57
  -6   1   7    5.87    0.78
  -6  -1   7    5.08    0.85
   6   1  -7    4.75    0.56
  -5  -1   7   54.85    3.38
   5  -1  -7   50.82    3.06
  -5   1   7   49.78    3.34
  -5  -1   7   51.12    3.33
  -5   1   7   49.64    3.36
   5   1  -7   47.08    3.01
  -4  -1   7   61.31    3.83
  -4   1   7   60.38    3.84
   4  -1  -7   58.66    3.65
  -4   1   7   57.01    3.80
  -4  -1   7   56.44    3.79
  -4  -1   7   57.24    3.45
   4  -1  -7   62.87    3.51
  -3   1   7   58.66    3.97
  -3  -1   7   61.60    3.99
   3  -1  -7   62.96    3.86
  -3   1   7   63.65    4.02
  -3   1   7   64.51    3.67
  -3  -1   7   65.29    3.66
  -3  -1   7   63.67    4.01
  -2   1   7    1.11    0.27
  -2   1   7    1.01    0.15
  -2  -1   7    1.18    0.23
  -2   1   7    1.06    0.20
   2  -1  -7    0.75    0.20
   2   1  -7    0.59    0.20
  -2  -1   7    1.09    0.20
  -1  -1   7    8.04    0.59
   1  -1  -7    7.37    0.62
  -1   1   7    7.91    0.63
   1   1  -7    9.33    0.59
   1   1  -7    7.51    0.63
  -1   1   7    8.21    0.60
   0  -1  -7   25.66    1.62
   0  -1  -7   25.82    1.65
   0  -1   7   25.63    1.54
   0   1  -7   23.54    1.65
   0   1   7   25.01    1.53
   0   1  -7   26.19    1.65
   0   1   7   26.75    1.67
   1   1   7    0.84    0.23
  -1   1  -7    1.00    0.20
  -1   1  -7    0.39    0.17
  -1  -1  -7    0.88    0.19
   1   1   7    0.94    0.16
  -1  -1  -7    0.67    0.19
   1  -1   7    0.73    0.17
   2  -1   7   14.12    0.99
   2  -1   7   12.94    0.90
  -2   1  -7   14.04    0.95
   2   1   7   14.26    1.01
  -2  -1  -7   13.88    1.00
  -2   1  -7   12.46    0.98
   2   1   7   13.29    0.87
  -2  -1  -7   13.54    0.95
  -3  -1  -7   40.85    2.70
   3  -1   7   43.38    2.64
  -3   1  -7   39.32    2.52
   3   1   7   40.91    2.38
   3  -1   7   41.63    2.42
   3   1   7   40.59    2.65
  -3  -1  -7   37.70    2.53
  -3   1  -7   39.29    2.68
  -4  -1  -7   68.62    4.32
   4  -1   7   71.14    4.52
   4  -1   7   68.71    4.11
   4   1   7   66.92    4.52
  -4   1  -7   66.44    4.58
  -4  -1  -7   72.79    4.61
   4   1   7   73.12    4.08
  -4   1  -7   75.17    4.30
  -5  -1  -7   19.13    1.54
  -5   1  -7   16.38    1.49
   5  -1   7   19.90    1.35
   5   1   7   20.91    1.31
   5   1   7   21.06    1.51
   5  -1   7   18.94    1.47
   6  -1   7   14.26    1.24
   6   1   7   15.23    1.25
  -6   1  -7   13.41    1.25
  -6  -1  -7   13.52    1.30
   6  -1   7   14.62    1.10
  -7   1  -7   10.12    1.04
  -7  -1  -7   10.32    1.11
   7   1   7    9.80    1.06
   7  -1   7   10.20    1.03
  -8   1  -7    0.60    0.44
   8  -1   7    0.05    0.53
  -8  -1  -7    0.29    0.44
   8   1   7    0.91    0.62
   9  -1   7    0.35    0.62
   9   2  -7    3.41    0.83
  -9  -2   7    2.05    0.79
  -9   2   7    1.64    0.84
  -8  -2   7    1.56    0.60
   8  -2  -7    2.15    0.52
  -8   2   7    2.54    0.69
   8   2  -7    2.96    0.77
  -7   2   7    0.53    0.45
  -7   2   7    1.01    0.46
   7  -2  -7    1.49    0.39
  -7  -2   7    1.08    0.45
   6  -2  -7   21.32    1.56
  -6  -2   7   24.67    1.70
  -6   2   7   21.22    1.71
   6   2  -7   23.49    1.52
  -6  -2   7   22.23    1.74
  -6   2   7   21.70    1.68
   5  -2  -7    4.85    0.60
  -5  -2   7    6.97    0.65
  -5  -2   7    6.61    0.69
  -5  -2   7    5.49    0.78
   5   2  -7    5.84    0.59
  -5   2   7    7.05    0.72
  -5   2   7    7.53    0.80
  -4  -2   7   11.31    0.81
  -4  -2   7   11.99    0.90
  -4   2   7   10.86    0.92
  -4  -2   7   10.92    0.95
   4  -2  -7   10.79    0.82
  -4   2   7   11.38    0.89
  -4  -2   7   11.45    0.89
   4  -2  -7   11.42    0.86
  -3  -2   7  265.60   16.33
  -3  -2   7  266.68   14.79
  -3   2   7  264.05   16.32
  -3   2   7  248.66   16.33
  -3  -2   7  281.84   15.79
   3  -2  -7  264.54   15.74
  -3  -2   7  250.32   16.30
  -2  -2   7   27.20    1.63
  -2  -2   7   27.82    1.77
  -2   2   7   25.16    1.64
  -2   2   7   23.51    1.71
   2  -2  -7   27.24    1.73
  -2   2   7   28.38    1.81
   2   2  -7   29.46    1.76
  -1  -2   7   13.41    0.97
   1  -2  -7   13.69    0.95
  -1  -2   7   13.51    0.88
   1   2  -7   14.31    0.93
  -1   2   7   13.36    0.96
  -1   2   7   12.63    0.88
   0   2  -7    2.67    0.31
   0   2   7    2.39    0.26
   0   2   7    2.83    0.33
   0  -2  -7    2.75    0.33
   0   2  -7    2.95    0.31
   0  -2   7    2.37    0.28
   1   2   7   57.94    3.39
  -1  -2  -7   60.12    3.66
   1  -2   7   58.61    3.43
   1   2   7   63.78    3.78
  -1   2  -7   58.71    3.64
  -1  -2  -7   61.63    3.75
  -1   2  -7   53.72    3.76
  -2   2  -7  123.99    8.25
   2   2   7  133.38    8.23
   2  -2   7  129.05    7.47
   2   2   7  132.29    7.42
  -2  -2  -7  138.58    8.26
  -2  -2  -7  130.75    7.95
  -2   2  -7  132.59    7.93
  -3  -2  -7   36.34    2.42
  -3   2  -7   38.28    2.56
   3   2   7   36.86    2.53
  -3  -2  -7   40.50    2.58
   3   2   7   38.72    2.25
  -3   2  -7   38.30    2.40
   3  -2   7   38.72    2.32
   3  -2   7   39.42    2.50
  -4   2  -7   26.10    2.01
   4  -2   7   31.11    2.00
   4   2   7   27.30    2.00
   4  -2   7   27.24    1.82
  -4  -2  -7   28.69    1.89
  -4   2  -7   30.64    1.83
   4   2   7   30.33    1.77
  -4  -2  -7   29.26    2.07
  -5   2  -7  169.65   10.90
  -5  -2  -7  179.80   10.95
   5  -2   7  176.27   10.80
  -5  -2  -7  183.90   10.40
   5   2   7  160.73   10.80
   5  -2   7  161.28    9.80
  -6  -2  -7   11.87    1.21
   6  -2   7   13.60    1.04
   6  -2   7   13.07    1.14
  -6   2  -7   12.68    1.17
   6   2   7   11.69    1.12
   7  -2   7    0.11    0.44
  -7   2  -7    0.24    0.38
   7  -2   7    0.18    0.33
  -7  -2  -7   -0.11    0.39
  -8  -2  -7    5.59    0.90
   8   2   7    4.84    0.91
  -8   2  -7    6.27    0.88
   8  -2   7    5.93    0.93
   9  -2   7   -0.72    0.57
  -9   3   7    4.45    0.97
  -9  -3   7    5.18    1.02
   9  -3  -7    3.38    0.63
   9   3  -7    4.98    1.03
  -8  -3   7    0.52    0.54
   8  -3  -7    0.29    0.30
  -8   3   7    0.08    0.48
   8   3  -7    0.59    0.60
  -7   3   7    5.28    0.80
   7  -3  -7    4.95    0.67
   7   3  -7    7.71    0.99
  -7  -3   7    6.03    0.81
  -6   3   7   13.65    1.28
  -6   3   7   15.93    1.28
   6  -3  -7   16.58    1.21
  -6  -3   7   15.03    1.26
   6   3  -7   16.70    1.13
   5   3  -7   37.56    2.19
  -5   3   7   35.96    2.42
   5  -3  -7   33.69    2.24
  -5  -3   7   35.45    2.46
  -5   3   7   33.64    2.44
  -5  -3   7   34.53    2.40
  -5  -3   7   36.73    2.34
   4  -3  -7    0.31    0.20
  -4   3   7    0.33    0.24
  -4  -3   7    0.25    0.30
   4  -3  -7    0.08    0.17
  -4   3   7    0.88    0.30
  -4  -3   7    0.36    0.22
  -4  -3   7    0.76    0.29
  -4  -3   7    0.66    0.20
  -3  -3   7   16.16    1.04
  -3   3   7   16.09    1.11
  -3  -3   7   17.48    1.18
   3  -3  -7   15.69    1.09
  -3  -3   7   15.67    1.17
   3  -3  -7   15.59    1.10
  -3   3   7   15.37    1.18
  -3  -3   7   16.18    1.14
  -2  -3   7    3.65    0.43
   2   3  -7    3.90    0.37
  -2   3   7    3.17    0.42
  -2   3   7    3.23    0.36
  -2  -3   7    3.78    0.36
   2  -3  -7    3.83    0.39
  -1  -3   7   34.93    2.04
  -1  -3   7   33.91    2.21
   1   3  -7   36.63    2.23
   1  -3  -7   34.04    2.19
  -1   3   7   33.78    2.25
  -1   3   7   32.31    2.04
   0  -3  -7  229.16   13.22
   0   3   7  214.61   12.37
   0  -3   7  228.49   13.22
   0   3  -7  215.65   13.68
   0  -3   7  220.85   12.39
   0   3   7  213.32   13.65
  -1  -3  -7    3.26    0.33
  -1  -3  -7    3.29    0.37
  -1   3  -7    2.31    0.32
   1   3   7    4.54    0.46
  -1   3  -7    2.67    0.36
   1  -3   7    2.47    0.32
   1   3   7    2.62    0.27
  -2  -3  -7  161.02    9.69
   2   3   7  161.87    9.04
  -2  -3  -7  169.28   10.06
   2  -3   7  156.39    9.10
  -2   3  -7  162.35    9.66
   2   3   7  158.54   10.02
  -2   3  -7  155.07   10.06
   3   3   7    2.22    0.25
  -3  -3  -7    1.85    0.32
   3   3   7    2.71    0.46
  -3   3  -7    2.21    0.37
   3  -3   7    2.86    0.37
  -3   3  -7    2.33    0.29
  -3  -3  -7    2.46    0.39
   4  -3   7    2.32    0.39
   4  -3   7    1.40    0.39
  -4  -3  -7    1.38    0.40
  -4   3  -7    2.41    0.43
  -4  -3  -7    1.85    0.33
   4   3   7    2.06    0.47
   5  -3   7    5.47    0.64
  -5  -3  -7    5.93    0.63
   5  -3   7    6.65    0.77
  -5  -3  -7    5.43    0.79
   5   3   7    7.04    0.81
  -5   3  -7    6.82    0.76
   6  -3   7   50.50    3.12
  -6  -3  -7   50.52    3.52
  -6   3  -7   47.96    3.46
   6  -3   7   54.07    3.41
   6   3   7   48.70    3.42
  -7   3  -7    1.32    0.50
  -7  -3  -7    0.58    0.50
   7   3   7    1.32    0.57
   7  -3   7    1.56    0.53
   7  -3   7    1.57    0.46
   8   3   7    1.04    0.64
  -8   3  -7    1.10    0.48
   8  -3   7    1.76    0.65
  -8  -3  -7    1.56    0.56
   9  -3   7   -0.36    0.70
   9  -4  -7    2.05    0.55
   9   4  -7    2.31    0.82
  -9  -4   7    2.67    0.87
   8  -4  -7    2.06    0.49
   8   4  -7    2.32    0.72
  -8   4   7    1.65    0.55
  -8  -4   7    1.94    0.62
   7  -4  -7    0.84    0.39
  -7   4   7   -0.03    0.38
  -7  -4   7    0.64    0.46
   7   4  -7    0.08    0.50
  -6   4   7    1.43    0.48
   6  -4  -7    0.86    0.36
  -6  -4   7    1.96    0.47
   6   4  -7    1.69    0.60
   5  -4  -7   14.42    1.12
  -5  -4   7   15.31    1.17
  -5  -4   7   14.48    1.15
  -5   4   7   15.95    1.17
  -5   4   7   13.56    1.20
   4  -4  -7    6.04    0.60
  -4  -4   7    6.19    0.51
  -4   4   7    5.51    0.66
  -4   4   7    5.81    0.57
  -4  -4   7    5.68    0.63
  -4  -4   7    6.69    0.60
   4  -4  -7    5.60    0.51
  -3  -4   7    9.03    0.64
   3  -4  -7    8.30    0.67
   3  -4  -7    8.12    0.68
  -3   4   7    8.93    0.68
  -3  -4   7    9.17    0.76
  -3   4   7    8.09    0.75
  -2  -4   7   20.26    1.29
  -2   4   7   20.13    1.36
   2  -4  -7   20.06    1.33
  -2  -4   7   21.04    1.44
   2   4  -7   22.69    1.43
   2  -4  -7   21.26    1.40
  -2   4   7   20.30    1.46
  -1   4   7    4.15    0.44
   1   4  -7    4.18    0.40
  -1  -4   7    4.26    0.46
   1  -4  -7    3.51    0.41
  -1  -4   7    3.79    0.36
  -1   4   7    3.88    0.38
   0   4   7    8.68    0.65
   0  -4  -7    9.90    0.75
   0  -4   7    9.16    0.73
   0  -4   7    8.82    0.66
   0   4  -7   10.67    0.75
   0   4   7    9.19    0.64
   0   4   7    9.27    0.75
   1   4   7   32.84    1.93
   1  -4   7   32.87    2.11
   1  -4   7   32.83    2.00
  -1  -4  -7   32.75    2.13
  -1   4  -7   32.98    2.19
   1   4   7   33.44    2.19
  -1  -4  -7   32.69    2.13
   2   4   7   18.51    1.12
  -2  -4  -7   18.87    1.30
  -2   4  -7   17.60    1.31
   2   4   7   18.11    1.34
   2  -4   7   18.26    1.22
  -2   4  -7   19.02    1.25
  -2  -4  -7   18.87    1.31
   3  -4   7    0.48    0.25
  -3   4  -7    0.89    0.27
  -3   4  -7    0.72    0.19
   3   4   7    0.74    0.14
  -3  -4  -7    0.61    0.25
   3   4   7    0.22    0.27
  -3  -4  -7    0.61    0.25
  -4  -4  -7    9.68    0.86
  -4  -4  -7    8.93    0.77
  -4   4  -7    9.46    0.83
   4   4   7    8.09    0.82
   4  -4   7    9.12    0.79
   4  -4   7    8.34    0.76
   5  -4   7    4.83    0.66
   5  -4   7    4.42    0.57
  -5   4  -7    4.46    0.63
  -5  -4  -7    4.01    0.67
  -5  -4  -7    4.01    0.54
   5   4   7    5.05    0.71
   6   4   7   -0.23    0.36
  -6  -4  -7    0.17    0.38
   6  -4   7    0.32    0.32
  -6   4  -7    0.26    0.34
   6  -4   7   -0.34    0.38
   7   4   7    5.93    0.89
  -7  -4  -7    5.87    0.87
   7  -4   7    6.04    0.76
  -7   4  -7    6.21    0.82
   7  -4   7    6.36    0.87
  -8   4  -7    2.03    0.66
  -8  -4  -7    2.62    0.65
   8   4   7    1.82    0.72
   8  -4   7    2.58    0.76
   8  -4   7    2.30    0.56
   9  -4   7   -0.61    0.73
   9  -5  -7    0.69    0.41
  -9  -5   7   -0.27    0.70
   9   5  -7    0.07    0.62
   8   5  -7    1.52    0.64
   8  -5  -7    1.48    0.44
  -8  -5   7    1.07    0.55
  -8   5   7    0.74    0.48
  -7  -5   7    3.36    0.66
   7  -5  -7    3.99    0.61
   7   5  -7    3.18    0.71
  -7   5   7    4.06    0.73
   6   5  -7    5.29    0.74
   6  -5  -7    3.61    0.55
  -6  -5   7    4.33    0.63
  -6   5   7    3.50    0.66
  -6  -5   7    2.08    0.51
  -5   5   7    1.33    0.41
   5   5  -7    0.69    0.44
  -5  -5   7    0.74    0.33
  -5  -5   7    0.73    0.22
   5  -5  -7    1.19    0.36
  -5  -5   7    1.10    0.35
  -4   5   7    8.15    0.79
   4  -5  -7    9.62    0.76
  -4   5   7    8.88    0.74
  -4  -5   7    9.66    0.81
  -4  -5   7    8.64    0.64
  -4  -5   7    8.08    0.74
   4   5  -7    6.91    0.76
  -3   5   7    4.01    0.42
  -3   5   7    4.23    0.55
   3   5  -7    4.68    0.52
  -3  -5   7    3.75    0.38
   3  -5  -7    4.40    0.48
   3  -5  -7    4.52    0.44
  -3  -5   7    4.73    0.54
  -2  -5   7   45.19    2.48
  -2   5   7   37.53    2.64
   2  -5  -7   45.87    2.66
   2   5  -7   43.24    2.74
   2  -5  -7   40.29    2.51
  -2  -5   7   41.12    2.70
  -2   5   7   40.67    2.75
  -1   5   7   22.13    1.55
  -1  -5   7   25.47    1.50
  -1  -5   7   25.12    1.66
  -1   5   7   24.66    1.67
   1  -5  -7   22.93    1.50
   1  -5  -7   24.95    1.62
   1   5  -7   25.96    1.65
   0  -5  -7   22.51    1.54
   0  -5   7   22.02    1.55
   0   5   7   23.77    1.40
   0  -5   7   23.56    1.43
   0   5  -7   22.52    1.56
   0   5   7   22.55    1.57
   0   5   7   22.39    1.47
   1   5   7    3.00    0.41
   1  -5   7    2.13    0.30
   1   5   7    1.97    0.23
  -1   5  -7    2.50    0.36
  -1  -5  -7    1.57    0.32
   1  -5   7    1.94    0.32
  -1  -5  -7    2.39    0.29
  -2  -5  -7   43.46    2.75
   2   5   7   40.98    2.81
   2  -5   7   41.63    2.58
  -2   5  -7   42.59    2.82
  -2  -5  -7   43.57    2.78
   2   5   7   43.48    2.46
   3  -5   7   17.33    1.19
  -3  -5  -7   18.04    1.25
  -3  -5  -7   16.49    1.25
  -3   5  -7   16.28    1.26
   3   5   7   16.13    1.28
  -3   5  -7   17.22    1.15
  -4  -5  -7    0.58    0.26
  -4   5  -7   -0.09    0.22
   4   5   7   -0.07    0.29
  -4  -5  -7    0.09    0.25
   4  -5   7    0.30    0.27
   5  -5   7    3.90    0.56
  -5  -5  -7    3.13    0.58
  -5   5  -7    4.42    0.62
   5   5   7    3.72    0.63
  -5  -5  -7    2.92    0.50
   5  -5   7    4.33    0.61
  -6   5  -7   21.56    1.75
   6  -5   7   21.96    1.64
   6   5   7   21.45    1.77
  -6  -5  -7   24.08    1.82
   6  -5   7   26.03    1.76
  -7  -5  -7    0.10    0.38
   7  -5   7   -0.47    0.37
  -7   5  -7   -0.03    0.35
   7   5   7    0.04    0.45
   7  -5   7    0.70    0.41
   8   5   7    9.12    1.21
  -8   5  -7    8.44    1.11
   8  -5   7    8.14    0.95
  -8  -5  -7    8.11    1.04
   9   6  -7    3.19    0.94
  -8   6   7    0.07    0.43
  -8  -6   7    0.37    0.52
   8  -6  -7    0.63    0.36
   8   6  -7    1.03    0.61
   7  -6  -7    1.98    0.49
  -7   6   7    2.95    0.62
   7   6  -7    2.71    0.71
  -7  -6   7    1.89    0.54
  -6  -6   7   29.27    2.01
   6  -6  -7   26.81    1.88
  -6  -6   7   28.80    1.97
  -6   6   7   25.04    2.01
   6   6  -7   26.00    2.00
  -5  -6   7    0.79    0.34
   5   6  -7    0.47    0.34
   5  -6  -7    0.09    0.25
  -5  -6   7    0.48    0.33
  -5   6   7    0.72    0.38
  -4   6   7   36.29    2.63
   4  -6  -7   42.10    2.47
  -4  -6   7   37.10    2.30
  -4  -6   7   40.56    2.59
   3  -6  -7   15.65    1.10
  -3   6   7   12.57    1.15
  -3   6   7   15.90    1.10
  -3  -6   7   15.61    1.01
   3   6  -7   17.26    1.19
   3  -6  -7   15.34    1.10
  -3  -6   7   16.03    1.20
  -2   6   7    5.25    0.46
   2   6  -7    5.87    0.53
  -2   6   7    5.11    0.59
  -2  -6   7    6.21    0.48
  -2  -6   7    5.71    0.61
   2  -6  -7    5.12    0.52
   2  -6  -7    5.54    0.53
   1   6  -7    3.89    0.44
  -1   6   7    4.12    0.48
   1  -6  -7    3.63    0.43
   1  -6  -7    2.91    0.35
  -1   6   7    3.18    0.32
  -1  -6   7    3.39    0.36
  -1  -6   7    3.38    0.46
   0  -6  -7    1.23    0.21
   0  -6  -7    1.07    0.27
   0   6   7    1.20    0.30
   0   6  -7    1.65    0.29
   0  -6   7    1.27    0.29
   0  -6   7    1.23    0.24
   0   6   7    1.26    0.20
  -1  -6  -7   13.49    1.02
   1  -6   7   13.09    1.00
   1   6   7   12.47    1.03
  -1   6  -7   12.57    1.01
   1  -6   7   13.80    0.95
  -1  -6  -7   14.37    0.98
   2  -6   7   26.78    1.71
  -2  -6  -7   26.91    1.81
   2  -6   7   27.24    1.76
   2   6   7   25.68    1.84
  -2  -6  -7   27.49    1.82
  -2   6  -7   25.31    1.85
   3  -6   7    4.51    0.52
  -3   6  -7    4.01    0.53
  -3  -6  -7    3.19    0.46
   3   6   7    4.49    0.57
  -3  -6  -7    3.88    0.50
  -3   6  -7    3.14    0.39
   4   6   7    3.86    0.62
  -4   6  -7    3.03    0.51
  -4  -6  -7    3.16    0.50
  -4  -6  -7    3.79    0.52
   4  -6   7    3.20    0.50
   5   6   7   45.80    3.29
  -5   6  -7   49.09    3.33
  -5  -6  -7   52.67    3.21
  -5  -6  -7   47.10    3.30
   5  -6   7   49.62    3.07
   6  -6   7    0.33    0.34
  -6   6  -7   -0.05    0.29
  -6  -6  -7    0.74    0.40
   6   6   7   -0.04    0.41
   7  -6   7    3.29    0.65
   7   6   7    4.54    0.78
  -7  -6  -7    4.73    0.70
  -7   6  -7    3.83    0.70
  -8  -6  -7    4.82    0.74
  -8   6  -7    2.85    0.76
   8   6   7    4.29    0.94
   8  -6   7    3.02    0.65
   8  -7  -7    0.10    0.34
  -8   7   7    0.86    0.54
  -8  -7   7    0.50    0.55
   8   7  -7    1.26    0.67
  -7  -7   7    3.10    0.60
  -7   7   7    2.69    0.62
   7   7  -7    2.21    0.68
   7  -7  -7    2.95    0.56
  -6   7   7    2.66    0.61
  -6  -7   7    2.80    0.55
   6  -7  -7    2.24    0.51
   6   7  -7    1.85    0.58
  -6  -7   7    2.66    0.56
  -5  -7   7    1.12    0.38
   5   7  -7    1.15    0.45
   5  -7  -7    1.92    0.43
  -5  -7   7    1.77    0.46
  -5   7   7    2.56    0.53
  -4  -7   7   19.59    1.48
  -4   7   7   19.42    1.48
   4   7  -7   19.76    1.49
   4  -7  -7   19.09    1.38
   3  -7  -7    1.33    0.33
  -3   7   7    2.42    0.45
   3   7  -7    1.84    0.41
   3  -7  -7    2.14    0.35
  -3  -7   7    1.89    0.44
  -3  -7   7    1.57    0.27
   2   7  -7    2.54    0.39
  -2   7   7    2.22    0.30
  -2   7   7    1.69    0.39
  -2  -7   7    1.87    0.41
   2  -7  -7    2.73    0.38
   2  -7  -7    2.63    0.36
  -2  -7   7    1.70    0.27
  -1  -7   7    1.03    0.34
   1  -7  -7    1.16    0.24
  -1  -7   7    1.72    0.27
  -1   7   7    2.24    0.28
   1  -7  -7    1.85    0.35
  -1   7   7    1.24    0.33
   1   7  -7    1.76    0.32
   0   7   7    0.50    0.19
   0  -7   7    0.42    0.23
   0  -7  -7    0.59    0.17
   0  -7   7    0.54    0.20
   0   7  -7    0.13    0.22
   0  -7  -7    0.93    0.27
   0   7   7    0.37    0.25
  -1  -7  -7    1.70    0.37
  -1  -7  -7    1.64    0.23
   1   7   7    1.81    0.42
   1   7   7    2.12    0.34
   1  -7   7    1.99    0.35
  -1   7  -7    2.26    0.38
   1  -7   7    1.78    0.32
   2  -7   7    2.69    0.45
  -2  -7  -7    4.68    0.47
   2  -7   7    3.77    0.46
  -2  -7  -7    3.76    0.50
  -2   7  -7    3.55    0.52
   2   7   7    3.29    0.53
   3   7   7    5.82    0.73
   3  -7   7    6.93    0.68
  -3   7  -7    7.22    0.75
   3  -7   7    7.04    0.60
  -3  -7  -7    5.25    0.67
  -3  -7  -7    5.82    0.62
  -4   7  -7    7.69    0.81
  -4  -7  -7    6.69    0.71
   4  -7   7    8.02    0.77
  -4  -7  -7    6.25    0.68
   4   7   7    7.02    0.84
  -5  -7  -7    0.71    0.36
   5   7   7    0.69    0.47
  -5  -7  -7    0.75    0.36
   5  -7   7    1.49    0.42
  -5   7  -7    0.92    0.37
  -6   7  -7    5.05    0.70
   6   7   7    5.43    0.82
  -6  -7  -7    3.80    0.64
  -6  -7  -7    3.67    0.64
   6  -7   7    5.04    0.70
  -7   7  -7    4.33    0.71
   7   7   7    3.89    0.76
   7  -7   7    3.17    0.64
  -7  -7  -7    4.01    0.65
  -8   7  -7    0.38    0.52
   8  -7   7   -0.14    0.37
  -8  -7  -7    0.57    0.43
  -8  -8   7   -0.01    0.53
  -8   8   7    0.49    0.46
   8  -8  -7    0.67    0.45
   7  -8  -7    4.16    0.69
  -7   8   7    4.95    0.79
  -7  -8   7    5.23    0.78
   6  -8  -7    0.03    0.29
  -6  -8   7   -0.20    0.31
  -6  -8   7   -0.06    0.36
  -6   8   7   -0.29    0.34
  -5   8   7   -0.10    0.32
   5   8  -7   -0.38    0.34
   5  -8  -7    0.12    0.27
  -5  -8   7    0.09    0.35
  -4  -8   7    1.28    0.42
  -4   8   7    1.26    0.40
   4  -8  -7    0.46    0.30
   4   8  -7    0.62    0.40
   3  -8  -7    4.29    0.54
   3   8  -7    4.10    0.59
  -3   8   7    5.82    0.66
  -3  -8   7    4.64    0.43
   3  -8  -7    3.77    0.50
  -3  -8   7    4.32    0.63
   2   8  -7    7.79    0.75
  -2  -8   7    8.57    0.65
  -2   8   7    8.35    0.78
   2  -8  -7    8.92    0.77
   2  -8  -7    9.14    0.73
  -2  -8   7    8.34    0.81
  -1   8   7   14.75    1.13
   1   8  -7   10.90    1.04
   1  -8  -7   15.04    1.09
  -1   8   7   14.32    1.01
  -1  -8   7   14.81    0.98
   1  -8  -7   15.51    1.01
  -1  -8   7   13.32    1.12
   0  -8  -7   10.21    0.73
   0  -8   7    8.96    0.84
   0   8  -7    7.61    0.81
   0   8   7   10.25    0.88
   0  -8  -7   10.25    0.86
   0  -8   7   11.23    0.78
   0   8   7   10.45    0.78
   1  -8   7   32.86    2.11
   1   8   7   32.28    2.09
  -1   8  -7   31.29    2.16
  -1  -8  -7   31.80    2.13
   1  -8   7   32.81    1.99
   1   8   7   27.02    2.12
  -2   8  -7    0.51    0.32
   2   8   7    0.10    0.32
   2  -8   7   -0.10    0.26
   2  -8   7    0.45    0.28
  -2  -8  -7    0.32    0.31
  -3   8  -7    0.59    0.32
   3   8   7    0.94    0.39
   3  -8   7    0.55    0.32
  -3  -8  -7    0.88    0.36
  -3  -8  -7    1.01    0.32
  -4   8  -7    5.89    0.72
   4   8   7    5.58    0.76
  -4  -8  -7    6.58    0.73
  -4  -8  -7    4.97    0.67
   4  -8   7    6.22    0.70
  -5  -8  -7    1.95    0.45
   5  -8   7    1.94    0.48
   5   8   7    2.33    0.59
  -5   8  -7    1.89    0.47
  -5  -8  -7    1.62    0.45
   6   8   7    0.27    0.44
  -6  -8  -7    0.22    0.40
  -6  -8  -7    0.85    0.37
  -6   8  -7    0.75    0.41
   6  -8   7    0.40    0.40
  -7   8  -7    5.07    0.78
  -7  -8  -7    4.21    0.69
   7  -8   7    3.17    0.65
   7   8   7    2.67    0.74
   8  -8   7    1.22    0.53
  -7  -9   7    2.68    0.68
  -7   9   7    2.98    0.67
   7  -9  -7    3.42    0.63
  -6   9   7   -0.22    0.33
   6   9  -7    0.02    0.38
   6  -9  -7   -0.09    0.31
  -6  -9   7    0.54    0.42
   5  -9  -7    2.44    0.52
  -5   9   7    1.62    0.49
  -5  -9   7    3.16    0.60
   5   9  -7    2.37    0.55
  -4  -9   7   36.69    2.47
   4  -9  -7   35.50    2.30
  -4   9   7   30.29    2.42
   4   9  -7   38.16    2.49
  -3  -9   7   18.53    1.46
   3  -9  -7   18.57    1.32
  -3   9   7   17.39    1.40
   3   9  -7   17.93    1.39
   3  -9  -7   18.97    1.35
  -2  -9   7    7.82    0.76
   2  -9  -7    7.58    0.67
   2  -9  -7    6.39    0.68
   2   9  -7    6.40    0.69
  -2  -9   7    7.00    0.57
  -2   9   7    7.00    0.71
   1  -9  -7    5.83    0.55
  -1  -9   7    6.54    0.71
   1  -9  -7    5.65    0.64
  -1   9   7    6.26    0.72
  -1  -9   7    5.20    0.52
   1   9  -7    5.81    0.66
   0   9   7    4.45    0.61
   0   9  -7    4.70    0.59
   0  -9  -7    3.31    0.55
   0  -9   7    4.71    0.60
   0  -9   7    4.02    0.48
   0  -9  -7    3.92    0.44
   0   9   7    4.60    0.51
   1   9   7    5.74    0.59
  -1   9  -7    5.24    0.64
   1  -9   7    5.15    0.61
   1  -9   7    4.79    0.55
   1   9   7    3.75    0.58
  -1  -9  -7    4.57    0.64
   2  -9   7   21.53    1.55
   2  -9   7   22.78    1.53
   2   9   7   21.01    1.57
  -2  -9  -7   22.45    1.63
   2   9   7   20.98    1.63
  -2   9  -7   22.05    1.64
  -3  -9  -7   71.78    4.64
   3  -9   7   77.62    4.40
   3   9   7   68.24    4.74
  -3  -9  -7   74.11    4.73
  -3   9  -7   72.22    4.78
   4  -9   7   27.78    1.85
   4   9   7   24.67    1.94
  -4  -9  -7   26.59    1.92
  -4   9  -7   26.72    1.96
  -4  -9  -7   25.70    1.90
  -5   9  -7    0.53    0.36
   5  -9   7    1.03    0.42
   5   9   7    0.84    0.51
  -5  -9  -7    0.52    0.34
  -5  -9  -7    0.94    0.41
   6   9   7    6.94    0.95
   6  -9   7    4.80    0.75
  -6  -9  -7    4.83    0.78
  -6   9  -7    5.49    0.81
  -6  -9  -7    6.19    0.77
   7  -9   7    5.25    0.82
   7   9   7    5.39    0.91
  -7   9  -7    4.72    0.82
  -7  -9  -7    5.13    0.76
   7 -10  -7    5.50    0.88
   7  10  -7    6.84    0.91
  -7  10   7    5.46    0.86
   6  10  -7    7.03    0.95
  -6 -10   7    7.93    0.98
   6 -10  -7    7.09    0.90
  -6  10   7    8.61    0.97
  -5  10   7    0.08    0.34
   5 -10  -7   -0.01    0.30
   5  10  -7    0.15    0.35
  -5 -10   7   -0.09    0.38
   4  10  -7    2.05    0.51
  -4 -10   7    1.22    0.49
  -4  10   7    1.97    0.49
   4 -10  -7    2.71    0.51
   3 -10  -7   27.83    1.92
  -3 -10   7   27.89    2.04
   3 -10  -7   31.16    1.90
  -3  10   7   26.54    1.99
   3  10  -7   25.73    1.98
   2  10  -7    4.51    0.63
   2 -10  -7    4.11    0.54
   2 -10  -7    4.93    0.61
  -2  10   7    4.33    0.62
  -2 -10   7    5.45    0.71
   1 -10  -7   53.50    2.94
   1  10  -7   44.98    3.21
  -1 -10   7   47.09    3.19
  -1 -10   7   45.94    2.88
   1 -10  -7   48.67    3.16
  -1  10   7   48.62    3.25
   0  10   7    9.45    0.93
   0 -10   7   10.83    0.96
   0  10  -7   10.11    0.92
   0  10   7    8.91    0.84
   0 -10  -7   10.82    0.96
   0 -10   7   11.80    0.85
   1  10   7    1.94    0.48
  -1  10  -7    1.77    0.43
   1  10   7    2.70    0.42
   1 -10   7    2.03    0.47
  -1 -10  -7    2.15    0.49
   1 -10   7    2.14    0.41
   2 -10   7   32.88    2.50
   2  10   7   37.84    2.58
  -2  10  -7   39.91    2.66
  -2 -10  -7   40.30    2.63
   2 -10   7   40.55    2.45
   2  10   7   37.13    2.64
  -3 -10  -7    0.64    0.37
   3  10   7    0.68    0.44
  -3  10  -7    0.33    0.32
   3 -10   7    0.18    0.31
  -4 -10  -7    2.89    0.59
  -4  10  -7    3.13    0.56
  -4 -10  -7    3.43    0.54
   4  10   7    2.83    0.64
   4 -10   7    2.29    0.53
   5  10   7    9.45    0.99
  -5 -10  -7    9.01    0.90
  -5 -10  -7    9.53    0.96
   5 -10   7    7.93    0.92
  -5  10  -7    8.77    0.92
   6 -10   7    1.72    0.53
   6  10   7    2.42    0.67
  -6 -10  -7    2.14    0.49
  -6 -10  -7    3.08    0.65
  -6  10  -7    1.93    0.55
   7 -10   7    1.44    0.57
   7  10   7    2.13    0.75
  -7  10  -7    1.58    0.64
  -7 -10  -7    4.03    0.61
   7 -11  -7    0.37    0.52
  -7  11   7    0.29    0.43
  -7 -11   7    0.80    0.62
   7  11  -7    1.62    0.58
  -6  11   7    0.69    0.44
   6  11  -7    0.86    0.48
  -6 -11   7    0.89    0.56
   6 -11  -7   -0.09    0.39
   5  11  -7    1.35    0.50
  -5  11   7    1.54    0.47
   5 -11  -7    0.67    0.39
  -5 -11   7    0.95    0.46
   4  11  -7    7.95    0.88
   4 -11  -7    7.52    0.84
  -4 -11   7    7.66    0.94
  -4  11   7    6.39    0.84
  -3 -11   7    0.35    0.44
   3  11  -7    1.36    0.41
   3 -11  -7    1.03    0.39
  -3  11   7    0.78    0.38
   2 -11  -7    1.65    0.40
   2 -11  -7    1.28    0.41
  -2  11   7    1.73    0.45
  -2 -11   7    1.13    0.46
   2  11  -7    1.67    0.45
   1 -11  -7    9.39    0.89
   1  11  -7    8.55    0.85
  -1 -11   7    8.56    0.72
  -1 -11   7    9.92    0.95
  -1  11   7    9.44    0.91
   1 -11  -7    8.27    0.77
   0 -11   7    6.41    0.65
   0  11   7    6.54    0.84
   0 -11   7    7.90    0.87
   0  11  -7    7.92    0.85
   0 -11  -7    8.17    0.85
   1  11   7    0.72    0.39
  -1  11  -7    0.66    0.35
   1 -11   7    0.28    0.28
   1  11   7   -0.02    0.27
  -1 -11  -7    1.34    0.43
   1 -11   7   -0.07    0.32
  -2 -11  -7    1.19    0.42
   2  11   7   -0.12    0.33
   2  11   7    0.54    0.31
   2 -11   7    0.26    0.29
  -2  11  -7    0.02    0.27
   2 -11   7   -0.41    0.27
   3 -11   7   13.12    1.09
   3  11   7   11.32    1.15
  -3 -11  -7   13.64    1.19
  -3  11  -7   12.37    1.13
   3  11   7   14.73    1.15
  -4 -11  -7    0.26    0.36
   4  11   7    0.14    0.39
   4 -11   7    0.15    0.31
  -4  11  -7    0.14    0.32
  -4 -11  -7    0.05    0.32
  -5 -11  -7    0.50    0.42
  -5  11  -7    0.12    0.33
   5  11   7    0.53    0.49
  -5 -11  -7    0.34    0.32
   5 -11   7    0.57    0.42
   6  11   7    2.19    0.67
  -6  11  -7    0.63    0.49
  -6 -11  -7    2.07    0.48
  -6 -11  -7    1.45    0.57
   6 -11   7    1.16    0.49
  -7 -11  -7    1.43    0.45
  -7 -12   7    1.33    0.69
  -6  12   7    3.95    0.66
  -6 -12   7    3.63    0.81
   6  12  -7    3.32    0.69
   6 -12  -7    2.69    0.68
  -5  12   7    3.69    0.65
   5  12  -7    2.29    0.61
   5 -12  -7    4.39    0.71
  -5 -12   7    2.57    0.69
  -4 -12   7    0.62    0.48
   4  12  -7    1.00    0.42
   4 -12  -7    0.81    0.43
  -4  12   7    0.85    0.39
   3 -12  -7    8.56    0.90
   3  12  -7    8.72    0.98
  -3 -12   7    8.94    1.02
  -3  12   7    8.59    0.89
   2  12  -7    0.32    0.37
   2 -12  -7    0.74    0.36
  -2  12   7    1.68    0.43
   2 -12  -7    1.49    0.44
  -2 -12   7    0.49    0.42
  -1  12   7    1.06    0.43
   1  12  -7    1.30    0.45
  -1 -12   7    1.06    0.44
   1 -12  -7    0.90    0.40
   0 -12   7    0.79    0.29
   0  12   7    0.03    0.32
   0 -12  -7    0.92    0.39
   0  12  -7    0.21    0.35
   0 -12   7    0.47    0.37
   1 -12   7    2.13    0.43
   1  12   7    2.65    0.59
   1 -12   7    2.40    0.51
  -1  12  -7    1.99    0.49
  -1 -12  -7    2.14    0.53
  -2  12  -7    9.01    0.91
   2  12   7    5.23    0.75
  -2 -12  -7    5.96    0.83
   2 -12   7    7.29    0.77
   2 -12   7    6.73    0.78
   2  12   7    7.29    0.76
  -3  12  -7    4.60    0.69
   3  12   7    4.04    0.62
  -3 -12  -7    4.17    0.69
   3  12   7    3.37    0.70
   3 -12   7    3.70    0.61
   4 -12   7    1.82    0.53
   4  12   7    1.45    0.55
  -4  12  -7    1.71    0.49
   4  12   7    1.26    0.51
  -4 -12  -7    1.07    0.48
  -5  12  -7    1.71    0.56
  -5 -12  -7    2.33    0.66
   5  12   7    3.23    0.70
   5 -12   7    1.79    0.57
  -5 -12  -7    3.37    0.60
   6  12   7   -0.01    0.50
  -6 -12  -7    1.30    0.61
   6 -12   7    0.22    0.49
  -6  12  -7    0.60    0.49
  -6 -12  -7    1.00    0.41
  -6 -13   7    2.35    0.79
   6 -13  -7    1.84    0.66
  -6  13   7    2.95    0.60
   6  13  -7    1.93    0.62
   5  13  -7   -0.13    0.34
  -5  13   7    0.64    0.39
   5 -13  -7   -0.18    0.39
  -5 -13   7    0.43    0.54
  -4  13   7    3.57    0.64
  -4 -13   7    2.65    0.69
   4 -13  -7    1.96    0.59
   4  13  -7    3.62    0.66
  -3  13   7    0.19    0.37
   3 -13  -7   -0.08    0.36
   3  13  -7    0.43    0.42
  -3 -13   7    0.96    0.46
   2 -13  -7    8.58    0.89
  -2  13   7    9.11    0.89
  -2 -13   7    8.74    1.02
   2  13  -7    8.00    0.94
   1  13  -7    1.01    0.45
   1 -13  -7    1.68    0.49
  -1  13   7    1.14    0.48
  -1 -13   7    1.24    0.47
   0  13   7    3.71    0.68
   0  13  -7    4.86    0.69
   0 -13   7    3.03    0.46
   0 -13  -7    4.26    0.67
   0 -13   7    3.64    0.65
  -1 -13  -7    9.19    1.01
   1 -13   7    7.96    0.79
   1 -13   7    8.99    0.91
   1  13   7    9.09    0.93
  -1  13  -7    9.48    1.00
  -2  13  -7    0.58    0.37
   2  13   7    0.38    0.39
  -2 -13  -7   -0.09    0.34
   2 -13   7    0.71    0.35
   3  13   7    9.55    1.07
   3  13   7    8.79    0.94
   3 -13   7    8.79    0.95
  -3  13  -7    9.47    0.98
  -3 -13  -7   10.23    1.09
  -4 -13  -7    3.22    0.74
   4  13   7    4.28    0.76
  -4  13  -7    3.93    0.72
   4  13   7    2.36    0.59
   4 -13   7    4.22    0.70
   5  13   7    0.77    0.63
   5  13   7    1.34    0.58
  -5  13  -7    1.32    0.59
  -5 -13  -7    2.22    0.69
   5 -13   7    0.92    0.52
  -6 -13  -7    5.30    0.91
  -6  14   7    2.77    0.63
   5  14  -7    0.35    0.42
   5 -14  -7   -0.69    0.44
  -5  14   7    0.85    0.42
  -5 -14   7    0.21    0.54
  -4  14   7    5.19    0.78
   4  14  -7    6.11    0.85
  -4 -14   7    6.41    0.97
   4 -14  -7    5.12    0.81
  -3 -14   7    2.49    0.62
   3  14  -7    1.98    0.55
  -3  14   7    2.42    0.53
   3 -14  -7    2.22    0.56
  -2  14   7    1.76    0.52
  -2 -14   7    1.79    0.52
   2  14  -7    1.23    0.47
   2 -14  -7    2.06    0.56
  -1  14   7    1.34    0.47
  -1 -14   7    1.30    0.50
   1 -14  -7    2.24    0.55
   1  14  -7    1.14    0.48
   0 -14  -7    2.63    0.57
   0  14   7    3.01    0.65
   0  14  -7    2.48    0.60
   0 -14   7    2.09    0.59
  -1  14  -7    3.74    0.69
  -1 -14  -7    4.48    0.73
   1  14   7    5.15    0.74
   1 -14   7    3.34    0.53
   1 -14   7    3.64    0.67
   2 -14   7    9.76    0.89
  -2  14  -7    9.08    1.05
  -2 -14  -7    8.64    1.05
   2  14   7    9.21    1.07
   3 -14   7    0.45    0.38
  -3  14  -7   -0.32    0.42
  -3 -14  -7   -0.58    0.42
   3  14   7   -0.03    0.37
  -4 -14  -7    2.47    0.73
   4  14   7    3.21    0.69
  -4  14  -7    2.23    0.64
   4 -14   7    3.21    0.68
   5  14   7    3.19    0.85
  -5 -14  -7    4.79    0.89
   5  14   7    4.96    0.85
  -5  14  -7    3.96    0.84
   5 -15  -7    0.85    0.57
  -4 -15   7    0.39    0.62
  -4  15   7    0.71    0.43
   4 -15  -7    0.72    0.50
   4  15  -7    1.06    0.54
  -3  15   7    1.29    0.46
   3  15  -7    1.92    0.58
  -3 -15   7    1.20    0.55
  -2  15   7   -0.04    0.37
  -2 -15   7    0.98    0.47
   2  15  -7   -0.06    0.45
  -1 -15   7    0.58    0.45
  -1  15   7    0.17    0.39
   1 -15  -7    0.34    0.41
   1  15  -7   -0.67    0.39
   0  15   7    0.13    0.38
   0  15  -7    0.39    0.43
   0 -15   7   -0.17    0.43
   0 -15  -7    1.09    0.47
  -1  15  -7    0.24    0.47
  -1 -15  -7    0.50    0.45
   1  15   7    0.34    0.42
   1 -15   7    0.34    0.37
   2  15   7    0.71    0.44
   2 -15   7    0.51    0.37
  -2  15  -7    0.47    0.50
  -2 -15  -7    1.22    0.49
  -3  15  -7    4.02    0.84
   3 -15   7    3.47    0.68
   3  15   7    4.11    0.71
  -3 -15  -7    4.65    0.89
   4 -15   7    0.46    0.50
  -4 -15  -7    0.25    0.58
   4  15   7    0.40    0.43
  -4  15  -7    0.17    0.54
  -3 -16   7    0.23    0.48
   3  16  -7    0.10    0.54
   2  16  -7    0.28    0.53
  -2 -16   7    0.70    0.48
  -1 -16   7    1.09    0.52
   1 -16  -7    1.08    0.52
   1  16  -7    0.11    0.51
   0 -16  -7    1.41    0.51
   0  16  -7   -0.06    0.52
   0 -16   7    1.19    0.49
   1  16   7    1.76    0.54
  -1  16  -7    0.95    0.59
  -1 -16  -7    1.65    0.57
   1 -16   7    0.62    0.44
  -2 -16  -7   -0.19    0.45
  -2  16  -7   -0.27    0.50
   2  16   7    0.46    0.45
   3  16   7    1.36    0.52
   3 -16   7    1.69    0.56
   1 -17  -7    1.07    0.51
  -1 -17   7    0.93    0.53
   0 -17   7    6.68    0.97
   0 -17  -7    5.53    0.90
  -1 -17  -7    2.72    0.68
   8   0  -8    1.45    0.39
  -8   0   8    0.07    0.52
  -7   0   8    2.23    0.66
  -7   0   8    2.15    0.53
   7   0  -8    3.02    0.51
  -6   0   8  234.38   15.20
  -6   0   8  242.53   15.20
   6   0  -8  250.87   13.80
   5   0  -8   27.30    1.76
   5   0  -8   25.97    1.71
  -5   0   8   24.17    1.83
  -5   0   8   28.38    1.91
  -4   0   8    6.78    0.68
  -4   0   8    6.61    0.57
  -4   0   8    6.15    0.59
   4   0  -8    6.51    0.60
  -3   0   8   49.53    3.31
  -3   0   8   51.58    3.35
  -3   0   8   53.45    3.07
   3   0  -8   53.98    3.25
   2   0  -8   86.65    5.83
  -2   0   8   97.53    5.89
   2   0  -8   95.07    5.71
  -2   0   8   96.40    5.37
   1   0  -8    0.14    0.16
   1   0  -8    0.25    0.11
  -1   0   8    0.21    0.13
  -1   0   8    0.33    0.17
   0   0  -8    6.08    0.46
   0   0   8    6.20    0.48
   0   0  -8    5.07    0.50
   0   0   8    6.68    0.49
   1   0   8   15.31    0.99
   1   0   8   15.52    1.07
  -1   0  -8   14.81    1.05
  -1   0  -8   16.22    1.08
  -2   0  -8   20.10    1.35
   2   0   8   18.99    1.34
  -2   0  -8   18.65    1.29
   2   0   8   19.80    1.22
  -3   0  -8   14.11    1.09
  -3   0  -8   12.89    0.99
   3   0   8   15.48    0.97
   3   0   8   14.57    1.07
   4   0   8    2.25    0.35
  -4   0  -8    2.94    0.48
   4   0   8    2.97    0.50
  -4   0  -8    2.18    0.32
  -5   0  -8   49.38    3.49
   5   0   8   52.48    3.43
   5   0   8   52.63    3.10
  -6   0  -8   24.00    1.83
   6   0   8   21.86    1.73
   7   0   8   54.70    3.89
  -7   0  -8   60.94    4.03
  -8   0  -8    4.96    0.82
   8   0   8    3.78    0.84
  -9   1   8    0.67    0.76
   9   1  -8    1.40    0.76
  -8  -1   8    2.31    0.62
  -8   1   8    2.35    0.66
   8  -1  -8    2.86    0.54
  -7  -1   8    4.15    0.67
  -7  -1   8    4.67    0.79
   7  -1  -8    3.27    0.56
   7   1  -8    4.82    0.61
  -7   1   8    4.37    0.77
  -6  -1   8    0.75    0.54
   6   1  -8    0.98    0.33
  -6   1   8    1.44    0.48
   6  -1  -8    0.65    0.33
  -6  -1   8   -0.37    0.34
  -6   1   8    0.42    0.39
  -5  -1   8   -0.08    0.33
  -5   1   8   -0.14    0.32
   5   1  -8   -0.08    0.20
   5  -1  -8   -0.09    0.22
  -5  -1   8    0.30    0.27
  -5   1   8   -0.42    0.25
   5   1  -8    0.06    0.22
   4  -1  -8   28.07    1.83
  -4  -1   8   29.18    1.76
  -4  -1   8   28.51    1.89
  -4  -1   8   26.79    1.93
  -4   1   8   26.12    1.88
  -4   1   8   26.34    1.93
   4  -1  -8   29.12    1.79
   4   1  -8   30.16    1.87
   3  -1  -8   55.91    3.49
   3   1  -8   57.88    3.52
  -3   1   8   51.25    3.55
  -3  -1   8   55.72    3.61
  -3   1   8   57.79    3.63
  -3   1   8   58.16    3.32
  -3  -1   8   55.51    3.57
  -3  -1   8   58.52    3.30
   2   1  -8   -0.07    0.12
   2  -1  -8    0.00    0.15
  -2   1   8   -0.13    0.17
  -2   1   8   -0.10    0.09
   2   1  -8   -0.05    0.14
  -2  -1   8   -0.04    0.16
  -2  -1   8    0.02    0.13
  -2   1   8    0.06    0.13
   1  -1  -8  103.26    6.30
  -1   1   8  103.53    5.91
   1   1  -8  104.43    6.47
   1   1  -8  104.81    6.31
  -1  -1   8  106.36    5.92
  -1   1   8  100.61    6.48
   0   1  -8   38.60    2.57
   0   1   8   41.43    2.59
   0   1   8   39.65    2.37
   0  -1   8   41.77    2.39
   0  -1  -8   39.74    2.55
   0  -1  -8   41.44    2.55
   0   1  -8   39.95    2.55
   1  -1   8    0.08    0.12
  -1  -1  -8    0.28    0.16
  -1  -1  -8    0.03    0.13
   1   1   8    0.09    0.11
  -1   1  -8    0.07    0.14
  -1   1  -8    0.04    0.13
   1   1   8    0.10    0.17
  -2  -1  -8   15.25    1.08
   2  -1   8   16.03    1.09
  -2  -1  -8   16.92    1.13
   2  -1   8   15.35    1.01
  -2   1  -8   13.38    1.10
   2   1   8   15.26    0.99
  -2   1  -8   15.53    1.07
   2   1   8   16.22    1.13
  -3   1  -8    0.06    0.14
   3  -1   8    0.07    0.16
   3   1   8    0.46    0.18
  -3  -1  -8    0.10    0.15
   3   1   8    0.17    0.23
  -3  -1  -8    0.10    0.19
   3  -1   8    0.27    0.25
  -3   1  -8    0.16    0.19
   4   1   8   21.72    1.55
  -4   1  -8   23.11    1.41
  -4   1  -8   19.86    1.56
   4  -1   8   19.21    1.38
  -4  -1  -8   21.11    1.42
  -4  -1  -8   21.64    1.59
   4  -1   8   20.79    1.52
   4   1   8   21.72    1.36
   5   1   8   28.05    1.74
  -5   1  -8   25.82    2.00
   5  -1   8   26.49    1.95
   5   1   8   29.36    1.98
   5  -1   8   26.63    1.77
  -5  -1  -8   27.08    2.02
   6   1   8   45.38    3.11
   6  -1   8   43.79    3.09
   6  -1   8   47.92    2.83
  -6  -1  -8   47.22    3.23
  -6   1  -8   43.89    3.18
   7   1   8   17.81    1.58
   7  -1   8   18.82    1.56
  -7   1  -8   22.07    1.68
  -7  -1  -8   20.09    1.71
   8  -1   8   -0.07    0.46
   8   1   8    0.33    0.54
  -8   1  -8    0.48    0.46
  -8  -1  -8    1.41    0.52
   9  -2  -8    0.32    0.35
   9   2  -8    0.03    0.64
   8  -2  -8    1.96    0.46
  -8   2   8    1.79    0.65
  -8  -2   8    1.63    0.59
  -7  -2   8    1.59    0.52
   7   2  -8    0.89    0.34
  -7   2   8    0.74    0.43
   7  -2  -8    0.44    0.33
  -7  -2   8    1.06    0.56
   6  -2  -8    4.67    0.60
  -6  -2   8    4.44    0.66
   6   2  -8    5.33    0.57
  -6   2   8    4.86    0.71
  -6  -2   8    3.94    0.73
  -6   2   8    4.07    0.63
  -5   2   8   48.12    3.37
   5   2  -8   51.56    3.06
  -5  -2   8   50.28    3.34
  -5  -2   8   51.67    3.24
  -5  -2   8   51.92    3.39
   5  -2  -8   49.76    3.10
  -5   2   8   51.10    3.35
   4  -2  -8   14.54    1.00
  -4  -2   8   13.01    1.10
   4  -2  -8   14.97    1.03
  -4  -2   8   13.58    1.04
  -4   2   8   14.03    1.10
  -4  -2   8   14.85    0.99
  -4   2   8   13.35    1.04
  -4  -2   8   14.10    1.06
   3  -2  -8   31.48    2.00
  -3  -2   8   29.63    2.06
  -3   2   8   29.53    1.91
  -3  -2   8   31.72    1.90
  -3  -2   8   32.92    2.06
  -3   2   8   28.66    2.01
  -3  -2   8   32.35    2.04
  -3   2   8   32.45    2.10
   2  -2  -8   64.55    3.94
  -2  -2   8   67.20    3.98
   2   2  -8   63.02    4.03
  -2   2   8   63.96    4.07
  -2   2   8   58.64    3.70
  -2  -2   8   65.47    3.70
   1  -2  -8   64.08    3.84
  -1   2   8   62.68    3.59
   1   2  -8   62.24    3.84
   1   2  -8   61.45    3.90
  -1  -2   8   61.44    3.58
  -1   2   8   60.01    3.93
   0   2   8   59.71    3.72
   0  -2  -8   60.32    3.63
   0   2   8   57.98    3.38
   0   2  -8   58.34    3.71
   0   2  -8   58.03    3.62
   0  -2   8   56.35    3.39
  -1  -2  -8   54.63    3.22
  -1   2  -8   46.28    3.22
  -1   2  -8   48.54    3.14
   1   2   8   52.31    3.25
   1   2   8   48.51    2.92
  -1  -2  -8   52.91    3.16
   1  -2   8   49.84    2.95
   2  -2   8   25.24    1.54
  -2  -2  -8   25.27    1.63
  -2   2  -8   23.17    1.60
   2   2   8   24.01    1.68
  -2   2  -8   24.32    1.68
   2   2   8   25.00    1.49
  -2  -2  -8   24.86    1.67
  -3   2  -8    3.90    0.49
   3  -2   8    3.36    0.41
  -3  -2  -8    3.07    0.39
   3   2   8    3.91    0.50
  -3  -2  -8    3.69    0.48
  -3   2  -8    3.58    0.38
   3   2   8    3.70    0.35
  -4   2  -8   41.92    2.96
  -4   2  -8   44.41    2.74
   4   2   8   42.43    2.93
  -4  -2  -8   45.31    3.00
   4  -2   8   42.46    2.67
  -4  -2  -8   43.99    2.79
   4   2   8   44.98    2.61
   4  -2   8   46.13    2.90
   5  -2   8    2.53    0.53
  -5  -2  -8    1.96    0.56
  -5   2  -8    2.76    0.55
   5  -2   8    3.24    0.47
  -5  -2  -8    2.81    0.41
   5   2   8    2.37    0.57
   6   2   8    0.28    0.45
  -6  -2  -8   -0.49    0.35
   6  -2   8   -0.01    0.39
   6  -2   8    0.11    0.29
  -6   2  -8   -0.14    0.31
   7  -2   8    4.72    0.74
   7   2   8    3.07    0.72
  -7   2  -8    4.26    0.71
  -7  -2  -8    3.63    0.71
  -8  -2  -8    1.17    0.48
   8   2   8    0.98    0.63
   8  -2   8    0.52    0.55
  -8   2  -8    0.33    0.42
   9   3  -8    1.88    0.80
   9  -3  -8    1.76    0.50
  -9  -3   8    1.43    0.77
  -8  -3   8    0.09    0.49
   8  -3  -8    0.27    0.36
  -8   3   8   -0.26    0.49
   8   3  -8   -0.08    0.52
  -7   3   8    7.20    0.97
   7  -3  -8    7.95    0.84
  -7  -3   8    9.00    0.92
  -6  -3   8    3.86    0.69
  -6   3   8    4.61    0.68
   6   3  -8    3.91    0.50
   6  -3  -8    3.02    0.54
  -6  -3   8    4.32    0.64
  -5  -3   8    6.81    0.68
  -5   3   8    7.48    0.80
  -5  -3   8    6.54    0.83
  -5  -3   8    6.19    0.68
   5  -3  -8    6.06    0.67
  -5   3   8    6.40    0.66
  -4  -3   8   23.49    1.49
  -4   3   8   24.98    1.62
  -4   3   8   22.03    1.67
  -4  -3   8   23.46    1.68
  -4  -3   8   21.72    1.61
   4  -3  -8   22.68    1.55
   4  -3  -8   24.23    1.56
  -4  -3   8   25.15    1.65
  -3  -3   8   11.02    0.76
  -3  -3   8   10.77    0.86
  -3   3   8   10.51    0.78
  -3  -3   8   10.88    0.88
  -3   3   8   10.25    0.88
   3  -3  -8   10.94    0.81
   3  -3  -8   10.79    0.81
  -2   3   8    0.12    0.18
  -2   3   8    0.03    0.13
  -2  -3   8    0.27    0.14
   2   3  -8    0.22    0.16
   2  -3  -8   -0.02    0.17
  -2  -3   8   -0.05    0.19
   1  -3  -8   55.28    3.38
   1   3  -8   53.02    3.44
  -1   3   8   52.23    3.47
  -1  -3   8   55.79    3.17
  -1   3   8   54.28    3.16
  -1  -3   8   54.77    3.40
   0   3   8    7.90    0.60
   0  -3  -8    7.73    0.67
   0  -3   8    8.44    0.61
   0   3  -8    7.90    0.65
   0   3   8    8.84    0.69
  -1   3  -8   49.99    3.15
  -1  -3  -8   54.04    3.22
   1   3   8   51.01    2.92
  -1   3  -8   47.51    3.25
  -1  -3  -8   50.46    3.17
   1   3   8   50.98    3.26
   1  -3   8   48.51    2.96
  -2  -3  -8   72.85    4.33
  -2   3  -8   66.99    4.15
   2   3   8   65.47    4.31
  -2  -3  -8   66.81    4.18
  -2   3  -8   65.18    4.32
   2  -3   8   65.69    3.93
   2   3   8   68.75    3.86
   3   3   8   41.63    2.34
   3   3   8   37.36    2.64
  -3   3  -8   38.82    2.66
  -3   3  -8   40.64    2.51
  -3  -3  -8   42.77    2.69
  -3  -3  -8   39.18    2.55
   3  -3   8   38.70    2.42
   4  -3   8   19.28    1.32
  -4   3  -8   17.91    1.36
  -4  -3  -8   18.43    1.39
   4   3   8   17.27    1.34
   4  -3   8   15.50    1.22
  -4  -3  -8   17.43    1.27
   5  -3   8   16.02    1.17
   5   3   8   11.79    1.16
  -5  -3  -8   13.79    1.22
  -5  -3  -8   14.17    1.06
  -5   3  -8   13.46    1.15
   5  -3   8   12.58    1.06
  -6  -3  -8   -0.46    0.36
   6  -3   8   -0.45    0.35
  -6   3  -8    0.44    0.37
   6   3   8   -0.53    0.36
   6  -3   8   -0.24    0.26
   7   3   8   11.05    1.17
   7  -3   8    9.91    0.93
  -7   3  -8    9.18    1.01
   7  -3   8   10.03    1.03
  -7  -3  -8    9.83    1.05
   8   3   8    2.08    0.73
  -8   3  -8    2.04    0.61
  -8  -3  -8    3.19    0.64
   8  -3   8    1.48    0.69
  -9  -4   8    9.00    1.24
   9  -4  -8    7.37    0.90
   9   4  -8    7.49    1.15
  -8  -4   8   -0.10    0.48
  -8   4   8    0.36    0.52
   8  -4  -8    0.15    0.32
   8   4  -8    0.64    0.56
   7  -4  -8    0.78    0.35
   7   4  -8    0.39    0.52
  -7   4   8    0.38    0.40
  -7  -4   8    0.87    0.43
  -6  -4   8   23.18    1.75
   6   4  -8   26.43    1.86
  -6   4   8   21.86    1.79
   6  -4  -8   24.84    1.69
   5  -4  -8   16.25    1.21
  -5  -4   8   14.61    1.23
  -5  -4   8   16.96    1.26
  -5   4   8   15.59    1.29
  -5  -4   8   17.64    1.12
   4  -4  -8    6.82    0.65
  -4   4   8    6.24    0.73
  -4  -4   8    7.11    0.58
  -4  -4   8    6.44    0.69
   4  -4  -8    7.07    0.60
  -4  -4   8    7.35    0.72
  -4  -4   8    6.58    0.62
  -3   4   8   18.82    1.38
   3  -4  -8   18.13    1.26
   3  -4  -8   18.83    1.29
  -3  -4   8   19.07    1.21
  -3   4   8   19.26    1.28
   3   4  -8   20.06    1.35
  -3  -4   8   17.20    1.35
   2  -4  -8    4.76    0.48
   2   4  -8    5.70    0.47
  -2  -4   8    4.83    0.44
  -2  -4   8    5.31    0.57
  -2   4   8    4.72    0.52
  -1  -4   8   61.24    3.59
   1  -4  -8   63.46    3.85
  -1  -4   8   61.91    3.86
  -1   4   8   58.48    3.95
   1   4  -8   62.13    3.93
  -1   4   8   63.11    3.60
   0  -4   8   65.31    4.18
   0   4  -8   71.60    4.31
   0  -4  -8   71.35    4.20
   0   4   8   67.74    3.89
   0  -4   8   66.87    3.91
   0   4   8   62.01    4.29
  -1   4  -8   13.50    1.04
  -1  -4  -8   15.44    1.06
   1   4   8   13.80    0.91
  -1  -4  -8   14.45    0.99
   1  -4   8   14.20    0.96
   1   4   8   13.54    1.06
  -2   4  -8    0.37    0.20
  -2  -4  -8    0.47    0.21
   2   4   8    0.35    0.12
   2  -4   8    0.35    0.18
  -2   4  -8    0.37    0.17
   2   4   8    0.41    0.27
  -2  -4  -8    0.39    0.20
  -3   4  -8   17.60    1.17
   3   4   8   16.62    1.28
  -3  -4  -8   16.01    1.26
  -3  -4  -8   16.53    1.22
   3  -4   8   16.76    1.18
   3   4   8   17.56    1.06
  -3   4  -8   17.47    1.28
   4   4   8    5.83    0.69
   4  -4   8    4.62    0.55
  -4  -4  -8    5.11    0.55
  -4  -4  -8    3.72    0.61
  -4   4  -8    4.44    0.61
  -5  -4  -8    7.33    0.74
   5  -4   8    8.08    0.80
  -5  -4  -8    8.22    0.93
  -5   4  -8    7.63    0.80
   5   4   8    7.72    0.89
   5  -4   8    8.06    0.78
   6   4   8    9.46    1.06
   6  -4   8    9.57    0.95
   6  -4   8    9.14    0.87
  -6  -4  -8    9.36    0.98
  -6   4  -8    8.31    0.90
  -7   4  -8    1.25    0.43
   7  -4   8   -0.55    0.40
  -7  -4  -8    0.65    0.45
   7   4   8    0.50    0.49
   7  -4   8    0.04    0.35
  -8  -4  -8    9.03    1.08
   8   4   8    8.17    1.18
   8  -4   8    9.63    1.18
  -8   4  -8    8.92    1.08
   9   5  -8    0.68    0.72
   9  -5  -8    0.34    0.37
  -9  -5   8    0.36    0.67
  -8  -5   8    0.74    0.53
  -8   5   8    1.06    0.49
   8   5  -8    0.12    0.63
   8  -5  -8    0.76    0.34
  -7  -5   8    3.61    0.64
  -7   5   8    3.14    0.70
   7   5  -8    4.22    0.82
   7  -5  -8    3.74    0.60
  -6   5   8   -0.15    0.39
   6   5  -8   -0.01    0.41
  -6  -5   8    0.49    0.38
   6  -5  -8    0.19    0.29
  -6  -5   8   -0.26    0.31
   5  -5  -8    8.58    0.79
  -5  -5   8    7.72    0.77
  -5  -5   8    8.43    0.81
  -5  -5   8    8.71    0.69
  -5   5   8    8.26    0.84
   5   5  -8    8.87    0.88
  -4   5   8    2.91    0.50
   4  -5  -8    2.26    0.40
  -4  -5   8    1.86    0.42
  -4  -5   8    2.00    0.31
  -4  -5   8    2.13    0.39
   4  -5  -8    3.04    0.37
  -3  -5   8    2.40    0.43
  -3   5   8    2.23    0.42
   3   5  -8    3.75    0.45
  -3  -5   8    2.79    0.33
   3  -5  -8    2.27    0.37
   3  -5  -8    2.90    0.37
   2   5  -8    2.31    0.34
  -2   5   8    2.01    0.36
   2  -5  -8    2.24    0.32
   2  -5  -8    2.41    0.35
  -2  -5   8    2.14    0.29
  -2  -5   8    2.39    0.40
   1  -5  -8    2.03    0.34
  -1  -5   8    2.09    0.37
  -1   5   8    2.12    0.36
  -1  -5   8    1.71    0.27
   1   5  -8    2.68    0.34
   0   5   8    7.38    0.68
   0   5   8    8.13    0.60
   0   5  -8    7.33    0.66
   0  -5  -8    8.70    0.70
   0  -5   8    8.13    0.62
   0  -5   8    7.73    0.68
   0   5   8    7.95    0.57
   1   5   8   10.91    0.74
  -1  -5  -8   11.19    0.81
   1  -5   8   10.83    0.80
   1   5   8   10.75    0.89
  -1   5  -8   10.79    0.86
   1  -5   8   12.16    0.86
  -1  -5  -8   10.30    0.86
  -2   5  -8    0.16    0.21
   2  -5   8    0.04    0.17
  -2  -5  -8    0.28    0.17
  -2  -5  -8    0.30    0.20
  -2   5  -8    0.22    0.16
   2   5   8   -0.25    0.24
   2   5   8   -0.02    0.10
  -3   5  -8   24.39    1.74
  -3  -5  -8   25.07    1.69
   3  -5   8   24.10    1.61
  -3  -5  -8   25.11    1.72
   3   5   8   22.18    1.72
  -3   5  -8   24.95    1.61
   4   5   8    5.67    0.73
   4  -5   8    4.82    0.61
  -4  -5  -8    6.53    0.69
  -4   5  -8    5.41    0.67
  -4  -5  -8    5.26    0.61
  -5  -5  -8    5.75    0.76
  -5  -5  -8    5.55    0.65
   5   5   8    6.55    0.81
  -5   5  -8    5.73    0.74
   5  -5   8    5.29    0.66
   6   5   8    9.22    1.02
  -6  -5  -8    8.83    1.00
  -6   5  -8    9.06    0.98
   6  -5   8    8.15    0.88
  -7  -5  -8    4.27    0.76
  -7   5  -8    4.39    0.73
   7  -5   8    3.82    0.63
   7   5   8    3.21    0.75
  -8   5  -8    0.90    0.60
   8   5   8    1.15    0.73
   8  -5   8    1.69    0.52
  -8  -5  -8    1.44    0.48
   9   6  -8   -0.77    0.63
   8   6  -8    1.77    0.67
  -8   6   8    0.76    0.53
   8  -6  -8    1.95    0.51
  -8  -6   8    2.06    0.63
   7  -6  -8   -0.06    0.30
  -7   6   8    0.13    0.40
   7   6  -8   -0.10    0.47
  -7  -6   8    0.03    0.41
  -6  -6   8    7.25    0.78
   6   6  -8    7.97    0.95
   6  -6  -8    7.92    0.83
  -6  -6   8    6.65    0.81
  -6   6   8    8.12    0.96
  -5  -6   8    0.52    0.34
  -5   6   8    0.67    0.39
  -5  -6   8    0.36    0.32
   5   6  -8    0.50    0.39
   5  -6  -8    0.55    0.30
  -4  -6   8    1.15    0.41
  -4   6   8    2.26    0.45
   4   6  -8    1.98    0.43
  -4  -6   8    1.92    0.30
   4  -6  -8    1.27    0.37
  -3   6   8   14.12    1.15
  -3  -6   8   13.72    1.16
   3  -6  -8   14.57    1.08
   3   6  -8   14.57    1.13
   3  -6  -8   16.38    1.10
  -3  -6   8   15.44    1.00
   2  -6  -8    0.30    0.21
  -2  -6   8    0.00    0.14
  -2   6   8   -0.10    0.19
   2  -6  -8   -0.02    0.16
   2   6  -8    0.07    0.19
  -2  -6   8    0.24    0.24
  -1   6   8    0.43    0.13
   1   6  -8    0.10    0.19
   1  -6  -8    0.40    0.16
  -1   6   8    0.10    0.20
   1  -6  -8    0.33    0.21
  -1  -6   8    0.12    0.22
  -1  -6   8    0.27    0.16
   0  -6   8    0.07    0.15
   0   6  -8    0.35    0.22
   0  -6   8    0.12    0.20
   0  -6  -8    0.22    0.13
   0  -6  -8   -0.08    0.17
   0   6   8    0.08    0.20
   0   6   8    0.00    0.11
  -1  -6  -8    2.38    0.39
  -1   6  -8    2.16    0.37
  -1  -6  -8    2.84    0.33
   1  -6   8    2.41    0.37
   1  -6   8    2.21    0.34
   1   6   8    2.35    0.27
   1   6   8    2.11    0.41
  -2   6  -8   12.11    0.98
  -2  -6  -8   12.39    0.94
   2  -6   8   11.69    0.92
   2  -6   8   13.87    0.94
   2   6   8   10.42    0.98
  -2  -6  -8   12.77    0.99
   3  -6   8    3.79    0.53
  -3  -6  -8    4.27    0.55
  -3   6  -8    4.57    0.48
  -3  -6  -8    4.33    0.53
   3   6   8    4.93    0.62
  -3   6  -8    5.71    0.62
   4  -6   8    4.07    0.57
  -4  -6  -8    5.06    0.60
   4   6   8    3.93    0.63
  -4  -6  -8    3.55    0.55
  -4   6  -8    4.52    0.62
   5  -6   8    2.06    0.46
   5   6   8    2.11    0.54
  -5  -6  -8    2.20    0.46
  -5  -6  -8    1.86    0.46
  -5   6  -8    1.73    0.47
  -6   6  -8   -0.08    0.33
  -6  -6  -8    0.59    0.40
   6   6   8    0.54    0.41
   6  -6   8    0.94    0.39
  -7  -6  -8    6.26    0.81
   7   6   8    5.10    0.84
   7  -6   8    4.96    0.73
  -7   6  -8    3.77    0.73
  -8   6  -8    2.80    0.74
  -8  -6  -8    3.87    0.70
   8   6   8    3.21    0.88
   8  -6   8    3.10    0.63
   8  -7  -8    2.28    0.57
  -8  -7   8    2.32    0.67
  -8   7   8    2.78    0.68
  -7  -7   8    4.11    0.69
  -7   7   8    3.79    0.74
   7  -7  -8    3.65    0.61
  -6  -7   8    0.45    0.35
  -6  -7   8   -0.16    0.34
   6  -7  -8    0.44    0.32
  -6   7   8   -0.07    0.35
  -5  -7   8    8.55    0.89
  -5   7   8    8.72    0.96
   5  -7  -8    9.62    0.85
   4   7  -8    7.23    0.77
  -4  -7   8    6.47    0.57
  -4  -7   8    7.66    0.80
   4  -7  -8    7.31    0.74
  -4   7   8    7.27    0.82
   3  -7  -8    5.80    0.57
  -3  -7   8    5.18    0.49
   3  -7  -8    4.26    0.55
  -3  -7   8    5.27    0.67
   3   7  -8    6.23    0.65
  -3   7   8    5.31    0.67
  -2   7   8    5.34    0.61
  -2  -7   8    5.47    0.64
  -2  -7   8    4.94    0.47
   2   7  -8    5.69    0.60
   2  -7  -8    5.42    0.58
   2  -7  -8    5.42    0.54
  -1   7   8    0.44    0.27
  -1  -7   8    0.51    0.29
   1  -7  -8    0.74    0.22
  -1  -7   8    0.79    0.22
   1  -7  -8    0.54    0.27
   1   7  -8    0.83    0.28
   0   7   8    1.87    0.26
   0  -7  -8    1.52    0.36
   0  -7   8    1.48    0.28
   0   7  -8    2.15    0.37
   0   7   8    1.57    0.35
   0  -7  -8    1.31    0.24
   0  -7   8    1.19    0.33
   1  -7   8   37.76    2.30
  -1  -7  -8   37.40    2.47
  -1  -7  -8   38.83    2.20
  -1   7  -8   38.23    2.52
   1   7   8   37.90    2.44
   1  -7   8   37.81    2.44
   1   7   8   32.32    2.48
   2   7   8   22.74    1.69
   2  -7   8   22.70    1.55
   2  -7   8   22.15    1.59
  -2  -7  -8   24.21    1.66
  -2  -7  -8   24.07    1.63
  -2   7  -8   23.31    1.69
   3   7   8   65.30    4.43
  -3  -7  -8   66.12    4.41
  -3   7  -8   69.55    4.22
  -3  -7  -8   68.51    4.32
   3  -7   8   68.37    4.08
  -3   7  -8   69.94    4.47
   4  -7   8    1.21    0.39
   4   7   8    0.74    0.42
  -4   7  -8    0.92    0.37
  -4  -7  -8    1.13    0.36
  -4  -7  -8    0.53    0.32
  -5  -7  -8    0.52    0.32
   5   7   8   -0.10    0.38
  -5  -7  -8    0.35    0.32
   5  -7   8    0.48    0.35
  -5   7  -8    0.21    0.33
   6   7   8    0.21    0.43
  -6  -7  -8   -0.18    0.31
  -6   7  -8   -0.08    0.28
  -6  -7  -8    0.05    0.32
   6  -7   8   -0.40    0.28
   7  -7   8    4.02    0.67
  -7  -7  -8    4.39    0.71
  -7   7  -8    3.64    0.72
   7   7   8    4.18    0.80
   8  -7   8   -0.09    0.42
  -8  -7  -8    0.80    0.47
   8  -8  -8    1.93    0.56
  -8   8   8    2.90    0.72
  -8  -8   8    3.04    0.75
   7  -8  -8   -0.10    0.30
  -7   8   8    0.20    0.43
  -7  -8   8    0.15    0.44
  -6   8   8    5.41    0.80
  -6  -8   8    6.77    0.82
   6  -8  -8    5.47    0.72
   5   8  -8    0.70    0.42
   5  -8  -8    0.22    0.28
  -5  -8   8    0.53    0.38
  -5   8   8    0.15    0.38
  -4  -8   8    9.42    0.94
   4  -8  -8   10.38    0.88
   4   8  -8    9.56    0.92
  -4   8   8   10.09    0.94
  -3  -8   8   50.86    3.43
  -3  -8   8   53.88    3.10
   3  -8  -8   55.03    3.35
   3  -8  -8   54.30    3.22
  -3   8   8   48.76    3.48
   3   8  -8   51.57    3.47
   2   8  -8   33.20    2.34
  -2  -8   8   33.58    2.10
   2  -8  -8   37.92    2.32
  -2  -8   8   37.09    2.37
  -2   8   8   30.69    2.34
   2  -8  -8   35.66    2.18
   1   8  -8   18.02    1.39
  -1  -8   8   18.04    1.42
   1  -8  -8   20.56    1.29
   1  -8  -8   19.62    1.41
  -1   8   8   18.04    1.43
  -1  -8   8   20.58    1.28
   0   8  -8   78.16    5.13
   0   8   8   76.24    5.03
   0  -8  -8   83.55    4.61
   0  -8   8   82.56    5.00
   0  -8  -8   81.82    5.00
   0   8   8   74.40    5.12
   0  -8   8   81.83    4.66
  -1  -8  -8   35.56    2.31
   1  -8   8   35.10    2.14
   1  -8   8   37.70    2.29
   1   8   8   29.57    2.28
  -1   8  -8   32.70    2.33
   1   8   8   34.18    2.25
  -2  -8  -8   16.32    1.16
   2  -8   8   13.88    1.10
   2   8   8   13.70    1.19
  -2  -8  -8   13.32    1.15
  -2   8  -8   14.50    1.18
   2  -8   8   15.25    1.11
  -3  -8  -8    3.31    0.55
   3   8   8    2.80    0.56
   3  -8   8    3.47    0.51
  -3   8  -8    3.62    0.57
  -3  -8  -8    2.96    0.47
   4   8   8    9.23    0.96
  -4  -8  -8    7.93    0.85
  -4  -8  -8    7.77    0.80
  -4   8  -8    7.92    0.84
   4  -8   8    9.14    0.85
  -5  -8  -8    6.34    0.76
   5  -8   8    6.85    0.78
   5   8   8    5.44    0.81
  -5  -8  -8    6.83    0.77
  -5   8  -8    6.38    0.79
  -6  -8  -8   11.14    1.08
   6  -8   8   13.21    1.12
  -6   8  -8   12.14    1.12
  -6  -8  -8   11.51    1.08
   6   8   8   11.31    1.16
  -7  -8  -8    0.77    0.40
  -7   8  -8    0.37    0.45
   7  -8   8    1.21    0.44
   7   8   8    0.78    0.55
  -7   9   8    0.36    0.41
   7  -9  -8   -0.12    0.28
   6   9  -8    1.31    0.52
   6  -9  -8    0.25    0.32
  -6   9   8    0.49    0.42
  -6  -9   8    0.50    0.45
  -5  -9   8    4.33    0.69
   5   9  -8    4.65    0.70
  -5   9   8    3.87    0.66
   5  -9  -8    3.24    0.57
  -4   9   8    2.97    0.55
   4   9  -8    3.15    0.57
   4  -9  -8    2.46    0.49
  -4  -9   8    2.54    0.58
   3  -9  -8    7.47    0.70
   3   9  -8    6.40    0.70
   3  -9  -8    7.28    0.71
  -3   9   8    6.99    0.80
  -3  -9   8    6.51    0.81
   2  -9  -8    0.41    0.32
  -2  -9   8    0.25    0.33
  -2   9   8    0.36    0.29
   2  -9  -8    0.02    0.23
   2   9  -8    0.29    0.31
  -2  -9   8    0.71    0.22
  -1   9   8   17.40    1.37
  -1  -9   8   17.45    1.20
  -1  -9   8   17.98    1.38
   1  -9  -8   19.07    1.23
   1   9  -8   16.14    1.32
   1  -9  -8   17.91    1.35
   0  -9   8   19.94    1.49
   0  -9   8   20.69    1.36
   0  -9  -8   19.36    1.49
   0  -9  -8   20.04    1.31
   0   9   8   20.84    1.52
   0   9  -8   19.09    1.48
   1  -9   8    1.95    0.37
   1   9   8    1.60    0.42
  -1   9  -8    1.43    0.40
   1   9   8    1.60    0.34
   1  -9   8    1.45    0.40
  -1  -9  -8    1.10    0.39
   2  -9   8   18.75    1.43
  -2  -9  -8   22.10    1.56
   2  -9   8   20.12    1.41
   2   9   8   18.03    1.44
  -2   9  -8   21.20    1.54
   2   9   8   19.44    1.54
   3  -9   8   -0.43    0.26
  -3  -9  -8    0.62    0.35
  -3  -9  -8    0.76    0.28
  -3   9  -8   -0.06    0.30
   3   9   8    0.07    0.39
  -4   9  -8    3.44    0.61
  -4  -9  -8    3.73    0.61
   4  -9   8    3.22    0.58
  -4  -9  -8    3.30    0.53
   4   9   8    3.81    0.66
   5   9   8    0.30    0.43
  -5   9  -8    0.56    0.35
  -5  -9  -8    0.46    0.33
  -5  -9  -8    0.74    0.39
   5  -9   8    0.11    0.34
   6   9   8    1.37    0.56
  -6  -9  -8    1.88    0.52
   6  -9   8    1.73    0.53
  -6  -9  -8    1.70    0.48
  -6   9  -8    1.46    0.53
   7  -9   8    0.21    0.38
   7   9   8    0.29    0.56
  -7  -9  -8    0.83    0.39
  -7   9  -8    1.00    0.53
   7  10  -8    0.39    0.46
  -7 -10   8    0.38    0.56
  -7  10   8    1.09    0.47
   7 -10  -8    0.35    0.42
   6 -10  -8    2.17    0.56
  -6 -10   8    3.53    0.70
  -6  10   8    2.51    0.59
   6  10  -8    2.99    0.63
  -5  10   8    2.03    0.53
   5  10  -8    1.47    0.51
   5 -10  -8    1.28    0.43
  -5 -10   8    1.43    0.48
   4 -10  -8    3.81    0.58
   4  10  -8    3.83    0.63
  -4 -10   8    3.74    0.68
  -4  10   8    3.55    0.63
   3 -10  -8    3.74    0.58
  -3  10   8    3.42    0.60
   3  10  -8    3.59    0.59
   3 -10  -8    4.72    0.58
  -3 -10   8    5.46    0.75
  -2  10   8    4.01    0.62
   2 -10  -8    4.87    0.61
   2 -10  -8    4.69    0.55
  -2 -10   8    4.17    0.66
  -2 -10   8    4.87    0.48
   2  10  -8    4.66    0.63
   1 -10  -8   12.44    1.02
  -1 -10   8   11.34    0.87
  -1  10   8   11.74    1.04
  -1 -10   8   10.78    1.04
   1  10  -8    9.89    0.96
   1 -10  -8   11.15    0.88
   0  10   8    1.66    0.45
   0 -10   8    2.34    0.49
   0  10  -8    1.98    0.43
   0 -10  -8    1.73    0.47
   0 -10   8    1.86    0.36
   1 -10   8    1.75    0.44
   1 -10   8    2.19    0.40
   1  10   8    1.32    0.45
  -1  10  -8    1.47    0.43
  -1 -10  -8    2.40    0.51
   2  10   8   34.52    2.49
  -2  10  -8   39.02    2.60
   2 -10   8   38.72    2.48
   2 -10   8   35.83    2.35
  -2 -10  -8   37.73    2.55
   2  10   8   34.44    2.56
  -3 -10  -8    3.81    0.64
   3  10   8    3.17    0.64
  -3 -10  -8    4.25    0.62
  -3  10  -8    3.88    0.64
   3 -10   8    3.74    0.58
  -4 -10  -8    1.16    0.36
  -4 -10  -8    0.53    0.39
   4  10   8    0.65    0.44
  -4  10  -8    1.36    0.42
   4 -10   8    0.32    0.37
  -5 -10  -8    2.61    0.57
  -5  10  -8    2.06    0.53
   5 -10   8    2.31    0.55
   5  10   8    3.70    0.70
  -5 -10  -8    2.97    0.54
  -6 -10  -8    2.05    0.50
   6  10   8    3.29    0.68
   6 -10   8    2.20    0.58
  -6  10  -8    2.50    0.62
  -6 -10  -8    2.88    0.63
  -7 -10  -8    1.51    0.42
  -7  11   8    5.73    0.86
   7  11  -8    3.44    0.78
  -7 -11   8    5.11    0.93
   6 -11  -8    1.04    0.48
  -6 -11   8    1.19    0.59
  -6  11   8    1.37    0.47
   6  11  -8    1.96    0.55
  -5  11   8    1.29    0.46
   5  11  -8    1.68    0.52
  -5 -11   8    0.15    0.43
   5 -11  -8    1.02    0.42
   4 -11  -8    5.20    0.70
   4  11  -8    5.54    0.74
  -4 -11   8    4.75    0.78
  -4  11   8    4.22    0.71
   3  11  -8    1.46    0.46
  -3 -11   8    1.58    0.55
   3 -11  -8    1.83    0.46
  -3  11   8    1.72    0.47
   2  11  -8    2.00    0.48
   2 -11  -8    3.23    0.53
  -2 -11   8    3.12    0.60
  -2  11   8    2.27    0.51
   2 -11  -8    1.36    0.39
  -1  11   8   14.16    1.19
   1 -11  -8   13.06    1.16
  -1 -11   8   13.03    1.00
   1  11  -8   12.39    1.13
  -1 -11   8   13.12    1.19
   1 -11  -8   15.62    1.07
   0  11  -8    8.16    0.84
   0 -11   8    9.59    0.77
   0 -11   8    8.74    0.89
   0 -11  -8    8.71    0.93
   0  11   8    8.18    0.87
  -1  11  -8    1.67    0.45
  -1 -11  -8    1.39    0.48
   1  11   8    1.52    0.49
   1 -11   8    1.77    0.47
   1 -11   8    1.46    0.37
   2 -11   8    3.38    0.53
  -2 -11  -8    2.74    0.58
   2  11   8    3.75    0.62
  -2  11  -8    2.78    0.57
   2 -11   8    2.32    0.48
  -3  11  -8    1.20    0.43
   3  11   8    1.37    0.44
  -3 -11  -8    0.53    0.37
   3  11   8    1.05    0.49
   3 -11   8    0.69    0.38
  -4 -11  -8    8.36    0.92
   4  11   8    6.55    0.91
  -4  11  -8    8.25    0.92
  -4 -11  -8    7.64    0.89
   4 -11   8    5.92    0.79
  -5 -11  -8    3.26    0.65
  -5  11  -8    2.29    0.59
   5  11   8    4.15    0.73
  -5 -11  -8    3.42    0.58
   5 -11   8    3.08    0.63
  -6 -11  -8   -0.04    0.50
  -6 -11  -8    1.23    0.42
   6 -11   8    1.12    0.50
  -6  11  -8    1.41    0.57
   6  11   8    0.31    0.51
  -7 -11  -8    7.82    0.97
  -7 -12   8   -0.25    0.63
  -6  12   8    4.54    0.73
   6  12  -8    6.29    0.87
   6 -12  -8    6.40    0.89
  -6 -12   8    3.87    0.85
   5  12  -8    5.11    0.78
  -5 -12   8    4.98    0.87
   5 -12  -8    4.60    0.75
  -5  12   8    5.54    0.79
   4  12  -8    2.48    0.54
  -4 -12   8    2.07    0.61
   4 -12  -8    1.92    0.53
  -4  12   8    2.68    0.56
   3  12  -8    8.10    0.91
  -3 -12   8    9.80    1.08
  -3  12   8   10.29    0.97
   3 -12  -8    9.52    0.94
   2  12  -8    4.84    0.73
   2 -12  -8    6.49    0.77
  -2  12   8    6.77    0.80
  -2 -12   8    7.12    0.89
   2 -12  -8    6.07    0.71
   1  12  -8    2.00    0.51
   1 -12  -8    2.38    0.54
  -1 -12   8    2.54    0.57
  -1  12   8    2.27    0.55
   0  12   8    0.90    0.45
   0  12  -8    0.48    0.37
   0 -12   8    0.69    0.29
   0 -12   8    0.01    0.34
   0 -12  -8    0.07    0.35
  -1 -12  -8    0.45    0.40
   1  12   8    0.30    0.39
   1 -12   8   -0.14    0.31
   1 -12   8    0.54    0.30
  -1  12  -8    0.45    0.32
  -2 -12  -8   23.67    1.68
   2 -12   8   20.17    1.49
   2  12   8   16.14    1.52
  -2  12  -8   20.89    1.62
   2 -12   8   22.41    1.57
  -3 -12  -8    9.72    0.99
  -3  12  -8    9.26    1.03
   3 -12   8    9.71    0.97
   3  12   8    9.10    1.06
  -4 -12  -8    0.30    0.41
   4  12   8   -0.16    0.43
   4 -12   8   -0.16    0.32
   4  12   8   -0.26    0.40
  -4  12  -8    0.26    0.34
   5 -12   8    5.04    0.80
   5  12   8    6.07    0.86
  -5  12  -8    3.44    0.74
  -5 -12  -8    5.30    0.77
  -5 -12  -8    7.02    0.94
  -6  12  -8    9.37    1.18
  -6 -12  -8    9.58    1.00
  -6 -12  -8    9.89    1.19
   6  12   8   10.66    1.24
  -6  13   8    0.06    0.37
  -6 -13   8    0.46    0.61
  -5  13   8    0.94    0.43
  -5 -13   8    0.29    0.54
   5  13  -8    0.37    0.40
   5 -13  -8    0.35    0.46
  -4 -13   8    1.54    0.59
   4 -13  -8    1.73    0.54
   4  13  -8    1.58    0.52
  -4  13   8    1.68    0.50
  -3  13   8   -0.07    0.34
   3 -13  -8   -0.22    0.35
  -3 -13   8    0.34    0.40
   3  13  -8   -0.12    0.35
  -2 -13   8    0.24    0.41
   2  13  -8    0.59    0.35
  -2  13   8    0.38    0.36
   2 -13  -8    0.51    0.40
  -1  13   8    1.77    0.52
   1  13  -8    2.38    0.52
  -1 -13   8    3.24    0.65
   1 -13  -8    2.63    0.59
   0 -13   8   -0.37    0.32
   0 -13  -8    0.49    0.40
   0  13  -8   -0.09    0.29
   0 -13   8   -0.22    0.23
   0  13   8    0.40    0.41
   1 -13   8    1.42    0.39
  -1 -13  -8    1.43    0.49
  -1  13  -8    0.87    0.43
   1  13   8    1.41    0.54
   1 -13   8    1.58    0.47
  -2  13  -8    0.32    0.41
   2 -13   8    0.40    0.30
  -2 -13  -8   -0.07    0.39
   2  13   8   -0.05    0.31
  -3  13  -8   11.87    1.15
   3  13   8   12.11    1.15
   3 -13   8   12.54    1.10
  -3 -13  -8   12.82    1.22
   4  13   8    0.10    0.44
  -4  13  -8    0.15    0.40
  -4 -13  -8    0.32    0.46
   4 -13   8    0.75    0.47
  -5  13  -8    0.27    0.48
   5 -13   8   -0.04    0.43
  -5 -13  -8    0.48    0.56
   5  13   8    0.60    0.53
  -5  14   8    0.76    0.40
   5 -14  -8    0.18    0.51
  -5 -14   8    0.37    0.62
   5  14  -8    0.60    0.45
  -4  14   8    2.13    0.58
   4  14  -8    2.30    0.58
  -4 -14   8    1.03    0.65
   4 -14  -8    1.55    0.56
   3 -14  -8    3.00    0.61
  -3 -14   8    2.80    0.65
  -3  14   8    2.13    0.54
   3  14  -8    2.47    0.59
   2  14  -8    2.47    0.59
   2 -14  -8    2.94    0.61
  -2 -14   8    3.20    0.70
  -2  14   8    3.73    0.65
   1 -14  -8    0.57    0.41
  -1  14   8   -0.29    0.33
   1  14  -8   -0.32    0.27
  -1 -14   8    0.07    0.41
   0  14   8    1.00    0.50
   0 -14  -8    1.99    0.55
   0 -14   8    1.50    0.49
   0  14  -8    1.08    0.49
   1 -14   8    0.11    0.29
   1  14   8    0.26    0.37
   1 -14   8    0.57    0.41
  -1  14  -8    1.04    0.47
  -1 -14  -8    0.79    0.43
  -2  14  -8    0.62    0.47
  -2 -14  -8    1.39    0.48
   2  14   8    0.47    0.44
   2 -14   8    0.01    0.27
  -3 -14  -8    5.28    0.88
   3 -14   8    4.49    0.72
  -3  14  -8    5.87    0.88
   3  14   8    5.71    0.77
   4 -14   8    1.07    0.49
   4  14   8    1.64    0.56
  -4  14  -8    1.06    0.56
  -4 -14  -8    0.79    0.63
   5  14   8    1.15    0.54
  -5  15   8    2.56    0.64
  -4  15   8    1.74    0.54
  -4 -15   8    2.44    0.78
   4 -15  -8    1.27    0.61
   4  15  -8    0.54    0.50
   3  15  -8    0.44    0.40
  -3 -15   8   -0.02    0.42
  -3  15   8    0.42    0.39
  -2 -15   8    3.34    0.71
   2  15  -8    1.91    0.54
  -2  15   8    2.43    0.58
  -1 -15   8    1.07    0.55
   1  15  -8    2.00    0.64
   1 -15  -8    1.82    0.55
  -1  15   8    1.79    0.52
   0 -15   8   -0.23    0.37
   0 -15  -8   -0.20    0.39
   0  15  -8   -0.34    0.44
   0  15   8   -0.63    0.39
  -1  15  -8    5.67    0.91
  -1 -15  -8    5.91    0.90
   1  15   8    7.56    0.94
   1 -15   8    6.35    0.85
  -2 -15  -8    1.83    0.58
   2 -15   8    1.39    0.45
  -2  15  -8    1.06    0.61
   2  15   8    0.95    0.50
   3 -15   8    5.82    0.84
  -3 -15  -8    7.25    1.08
   3  15   8    7.90    0.95
  -3  15  -8    7.09    1.05
   4  15   8    1.39    0.55
   4 -15   8    0.36    0.51
   2  16  -8    1.19    0.66
  -2  16   8    2.15    0.58
  -2 -16   8    2.35    0.63
  -1 -16   8    0.32    0.48
   1  16  -8    0.99    0.62
  -1  16   8   -0.10    0.41
   1 -16  -8    1.15    0.49
   0 -16  -8    0.27    0.43
   0  16  -8   -0.52    0.51
   0 -16   8   -0.09    0.39
   0  16   8   -0.18    0.43
  -1  16  -8    0.59    0.57
  -1 -16  -8    1.14    0.50
   1  16   8    0.75    0.47
   2  16   8    5.66    0.84
  -2  16  -8    6.04    0.99
  -2 -16  -8    5.44    0.93
   2 -16   8    4.07    0.68
   3 -16   8    2.87    0.66
   3  16   8    3.17    0.69
  -1 -17   8    1.19    0.57
   1 -17  -8    0.82    0.55
   0 -17   8    0.39    0.51
   0 -17  -8    1.04    0.56
  -8   0   9    0.79    0.61
   8   0  -9    0.20    0.32
   7   0  -9   -0.07    0.28
  -7   0   9    0.02    0.53
  -6   0   9    0.24    0.36
   6   0  -9    0.56    0.31
  -6   0   9    0.79    0.43
   5   0  -9   -0.13    0.20
  -5   0   9    0.22    0.26
   5   0  -9    0.33    0.24
  -5   0   9    0.12    0.34
   4   0  -9    0.07    0.18
  -4   0   9    0.19    0.28
  -4   0   9   -0.05    0.18
  -4   0   9    0.10    0.18
  -3   0   9   -0.18    0.13
  -3   0   9    0.09    0.19
  -3   0   9   -0.09    0.13
   3   0  -9    0.23    0.18
  -2   0   9    0.08    0.19
   2   0  -9    0.12    0.11
  -2   0   9    0.23    0.15
   2   0  -9   -0.12    0.15
  -1   0   9   -0.13    0.14
   1   0  -9   -0.02    0.15
  -1   0   9    0.08    0.12
   1   0  -9   -0.08    0.09
   0   0   9   -0.09    0.09
   0   0  -9   -0.02    0.10
   0   0   9    0.17    0.13
   0   0  -9   -0.06    0.13
  -1   0  -9    0.03    0.12
   1   0   9   -0.15    0.13
  -1   0  -9   -0.03    0.14
   1   0   9   -0.06    0.11
   2   0   9   -0.01    0.17
   2   0   9    0.06    0.12
  -2   0  -9    0.13    0.16
  -2   0  -9    0.12    0.16
   3   0   9   -0.36    0.18
  -3   0  -9   -0.15    0.14
  -3   0  -9    0.14    0.18
   3   0   9   -0.03    0.14
   4   0   9   -0.21    0.17
  -4   0  -9   -0.04    0.26
   4   0   9    0.22    0.28
  -4   0  -9    0.10    0.19
  -5   0  -9   -0.04    0.34
   5   0   9    0.28    0.39
   5   0   9    0.26    0.25
   6   0   9    0.70    0.43
  -6   0  -9    0.07    0.38
  -7   0  -9    0.83    0.43
   7   0   9   -0.02    0.40
  -8   0  -9    0.04    0.39
   8   0   9   -0.17    0.54
  -8   1   9    1.34    0.69
  -8  -1   9    0.61    0.62
   8  -1  -9    1.23    0.44
  -7   1   9    0.04    0.46
  -7  -1   9   -0.55    0.44
   7   1  -9    0.30    0.29
   7  -1  -9    0.79    0.35
  -7  -1   9    0.59    0.42
   6  -1  -9   27.47    1.82
  -6  -1   9   29.83    2.03
  -6   1   9   23.39    1.95
   6   1  -9   26.63    1.78
  -6  -1   9   26.65    1.93
  -5   1   9    2.41    0.48
  -5  -1   9    4.53    0.62
   5  -1  -9    4.33    0.51
  -5  -1   9    3.63    0.49
   5   1  -9    3.42    0.47
  -5   1   9    4.40    0.62
   5   1  -9    2.96    0.48
  -4  -1   9    1.20    0.28
  -4   1   9    0.95    0.34
  -4  -1   9    2.05    0.31
   4   1  -9    1.07    0.30
   4  -1  -9    1.64    0.30
  -4  -1   9    1.91    0.39
  -4   1   9    1.41    0.29
  -3  -1   9    3.90    0.40
   3  -1  -9    3.70    0.43
  -3  -1   9    4.59    0.49
  -3   1   9    3.45    0.37
  -3   1   9    4.35    0.51
  -3  -1   9    3.65    0.41
   3   1  -9    4.06    0.46
  -3   1   9    4.80    0.46
  -2   1   9   72.62    4.31
   2   1  -9   75.12    4.60
  -2   1   9   77.17    4.73
   2   1  -9   70.13    4.66
   2  -1  -9   73.99    4.58
  -2  -1   9   77.18    4.31
  -2  -1   9   75.41    4.70
  -1   1   9   22.30    1.54
   1   1  -9   22.62    1.51
   1   1  -9   23.50    1.55
  -1   1   9   23.11    1.44
   1  -1  -9   22.80    1.54
  -1  -1   9   24.71    1.45
   0   1   9    0.67    0.17
   0  -1  -9    0.30    0.18
   0  -1   9    0.37    0.15
   0   1  -9    0.33    0.15
   0   1  -9    0.31    0.19
   0   1   9    1.50    0.24
   0  -1  -9    0.51    0.13
   1   1   9   23.12    1.42
   1   1   9   25.49    1.57
   1  -1   9   23.33    1.44
  -1  -1  -9   22.02    1.53
  -1   1  -9   21.27    1.53
  -1  -1  -9   23.57    1.53
  -1   1  -9   22.13    1.53
  -2  -1  -9   42.77    2.70
  -2   1  -9   38.79    2.77
   2   1   9   43.23    2.52
  -2  -1  -9   43.38    2.79
   2   1   9   42.93    2.78
   2  -1   9   44.06    2.75
   2  -1   9   42.20    2.53
  -2   1  -9   43.62    2.70
  -3   1  -9    1.36    0.28
  -3  -1  -9    1.71    0.34
  -3   1  -9    1.67    0.35
  -3  -1  -9    1.70    0.28
   3  -1   9    1.37    0.27
   3   1   9    1.87    0.27
   3   1   9    1.67    0.37
   3  -1   9    2.70    0.41
  -4  -1  -9    7.38    0.74
  -4   1  -9    5.36    0.55
  -4   1  -9    6.03    0.73
   4  -1   9    6.45    0.71
   4   1   9    6.17    0.55
   4   1   9    5.66    0.70
  -4  -1  -9    5.92    0.56
   4  -1   9    5.83    0.58
   5   1   9   35.73    2.16
  -5  -1  -9   35.59    2.50
   5  -1   9   33.23    2.17
  -5   1  -9   35.09    2.48
   5   1   9   33.82    2.41
   5  -1   9   35.08    2.40
   6  -1   9   10.79    1.05
  -6   1  -9   11.31    1.07
  -6  -1  -9   10.42    1.09
   6   1   9   10.18    1.05
   6  -1   9   11.37    0.93
  -7  -1  -9    0.50    0.43
  -7   1  -9    0.35    0.40
   7  -1   9   -0.30    0.41
   7   1   9   -0.25    0.42
  -8  -1  -9    4.22    0.78
   8   1   9    3.80    0.84
   8  -1   9    3.55    0.79
  -8   1  -9    3.62    0.76
   9   2  -9    0.08    0.62
   9  -2  -9    0.55    0.37
  -8   2   9   -0.16    0.56
   8  -2  -9    0.68    0.36
  -7  -2   9   10.90    0.97
  -7   2   9    8.67    1.02
   7  -2  -9    7.63    0.87
   7   2  -9    7.80    0.80
  -7  -2   9    9.87    1.12
   6  -2  -9   12.45    1.08
   6   2  -9   13.97    1.06
  -6  -2   9   16.49    1.29
  -6  -2   9   14.31    1.17
  -6   2   9   13.34    1.20
  -5   2   9  130.25    8.65
  -5  -2   9  141.47    8.66
   5  -2  -9  136.19    7.89
  -5  -2   9  138.27    8.62
   4  -2  -9   30.85    1.96
  -4  -2   9   29.07    2.05
  -4  -2   9   30.36    1.86
  -4   2   9   27.00    2.04
  -4  -2   9   30.32    2.00
  -4  -2   9   30.16    2.00
  -4   2   9   29.14    1.99
   4  -2  -9   32.23    1.93
  -3  -2   9    3.94    0.47
   3  -2  -9    3.26    0.40
  -3   2   9    3.26    0.34
  -3   2   9    4.40    0.45
  -3   2   9    3.88    0.49
  -3  -2   9    3.66    0.40
   2  -2  -9    6.17    0.56
  -2   2   9    6.14    0.54
  -2   2   9    6.78    0.61
   2   2  -9    6.46    0.59
  -2  -2   9    7.15    0.54
   2   2  -9    5.93    0.51
  -1   2   9  191.12   12.02
  -1   2   9  197.31   10.92
  -1  -2   9  187.75   10.92
   1   2  -9  190.44   12.02
   1   2  -9  194.21   11.65
   1  -2  -9  200.23   11.65
   0   2  -9  136.90    8.74
   0   2  -9  139.96    8.48
   0  -2  -9  141.65    8.48
   0  -2   9  139.51    7.95
   0   2   9  142.13    7.94
   0   2   9  140.38    8.74
  -1   2  -9    4.43    0.46
   1   2   9    4.96    0.42
   1  -2   9    5.11    0.44
  -1   2  -9    4.55    0.46
  -1  -2  -9    5.60    0.50
  -1  -2  -9    4.96    0.43
   1   2   9    4.96    0.51
   2   2   9   11.85    0.80
  -2   2  -9   12.59    0.88
  -2  -2  -9   12.10    0.90
   2   2   9   13.15    0.94
   2  -2   9   11.31    0.83
  -2  -2  -9   11.51    0.89
  -2   2  -9   10.14    0.88
   3   2   9   75.67    4.10
  -3  -2  -9   69.86    4.39
   3  -2   9   72.27    4.15
  -3   2  -9   70.19    4.37
  -3   2  -9   70.11    4.59
  -3  -2  -9   77.07    4.61
   3   2   9   64.79    4.54
   3  -2   9   68.62    4.50
  -4   2  -9   69.73    4.46
   4  -2   9   69.85    4.37
  -4   2  -9   66.90    4.18
  -4  -2  -9   69.18    4.48
   4   2   9   71.74    3.96
   4  -2   9   66.95    4.01
   4   2   9   63.66    4.39
  -4  -2  -9   66.52    4.22
   5   2   9    5.03    0.74
  -5   2  -9    5.17    0.72
  -5  -2  -9    6.00    0.82
   5  -2   9    4.78    0.59
   5  -2   9    5.82    0.73
   6  -2   9    2.32    0.45
  -6   2  -9    1.74    0.51
   6   2   9    1.36    0.53
  -6  -2  -9    2.06    0.59
   6  -2   9    2.49    0.58
   7  -2   9    2.84    0.67
  -7   2  -9    4.32    0.72
   7   2   9    2.69    0.70
  -7  -2  -9    3.60    0.71
   8  -2   9    0.65    0.56
  -8  -2  -9    1.98    0.55
   8   2   9    0.67    0.63
  -8   2  -9    0.57    0.42
   9   3  -9    0.47    0.65
   9  -3  -9    0.84    0.39
  -8   3   9    1.81    0.67
   8  -3  -9    1.65    0.44
   8   3  -9    1.28    0.68
  -8  -3   9    1.54    0.65
  -7  -3   9    6.75    0.87
  -7   3   9    6.66    0.87
   7  -3  -9    6.18    0.76
  -6  -3   9    3.74    0.69
  -6  -3   9    3.70    0.59
   6   3  -9    3.30    0.48
   6  -3  -9    3.62    0.56
  -6   3   9    3.29    0.63
  -5   3   9    1.11    0.38
  -5  -3   9   -0.08    0.38
  -5  -3   9    0.34    0.30
  -5  -3   9    0.41    0.22
  -5  -3   9   -0.02    0.29
   5  -3  -9    0.49    0.28
  -4  -3   9   15.37    1.14
  -4  -3   9   15.70    1.16
  -4  -3   9   14.54    1.09
   4  -3  -9   13.40    1.05
   4  -3  -9   14.71    1.08
  -4  -3   9   16.03    1.03
  -4   3   9   13.94    1.15
  -3  -3   9   13.52    0.94
   3   3  -9   14.53    1.01
  -3   3   9   12.49    1.05
   3  -3  -9   13.32    0.99
  -3  -3   9   13.85    1.05
  -2   3   9   13.91    1.07
  -2  -3   9   14.44    0.97
   2  -3  -9   13.54    1.02
   2   3  -9   15.78    1.02
  -2  -3   9   13.94    1.07
  -2   3   9   13.82    0.98
   1   3  -9    3.34    0.35
  -1   3   9    2.76    0.33
  -1   3   9    3.19    0.41
  -1  -3   9    2.57    0.33
   1  -3  -9    2.84    0.39
  -1  -3   9    2.64    0.40
   0   3  -9   46.52    3.07
   0  -3   9   49.11    2.83
   0   3  -9   47.92    3.02
   0   3   9   47.47    2.80
   0   3   9   46.79    3.09
   0  -3  -9   49.02    3.03
   1   3   9    0.16    0.12
  -1  -3  -9    0.38    0.20
  -1  -3  -9    0.08    0.14
  -1   3  -9    0.05    0.16
  -1   3  -9   -0.01    0.15
   1   3   9    0.37    0.23
   1  -3   9    0.28    0.15
  -2   3  -9    2.29    0.36
  -2  -3  -9    2.28    0.35
   2  -3   9    2.22    0.33
  -2  -3  -9    2.43    0.36
   2   3   9    2.15    0.40
  -2   3  -9    2.08    0.32
   2   3   9    2.35    0.26
  -3   3  -9    0.80    0.23
   3   3   9    0.76    0.19
   3   3   9    0.84    0.32
   3  -3   9    0.96    0.27
  -3   3  -9    1.22    0.29
  -3  -3  -9    0.54    0.24
  -3  -3  -9    1.14    0.33
  -4  -3  -9   49.57    3.48
  -4  -3  -9   51.64    3.30
  -4   3  -9   50.46    3.46
   4  -3   9   57.95    3.40
   4  -3   9   53.34    3.15
   4   3   9   48.62    3.43
  -5   3  -9   37.74    2.58
  -5  -3  -9   35.16    2.60
   5  -3   9   36.61    2.33
  -5  -3  -9   35.45    2.39
   5  -3   9   41.32    2.51
   5   3   9   32.50    2.50
   6   3   9    0.16    0.38
  -6   3  -9   -0.13    0.31
  -6  -3  -9    0.20    0.38
   6  -3   9    0.22    0.31
   6  -3   9   -0.14    0.38
   7   3   9    0.08    0.47
   7  -3   9    0.70    0.47
   7  -3   9    1.30    0.41
  -7  -3  -9    1.22    0.50
  -7   3  -9    0.66    0.42
   8  -3   9    0.87    0.66
   8   3   9    2.65    0.77
  -8  -3  -9    2.40    0.61
  -8   3  -9    1.99    0.58
   9  -4  -9    0.22    0.34
   9   4  -9    0.15    0.63
  -8  -4   9    1.11    0.58
   8   4  -9    2.16    0.74
  -8   4   9    0.74    0.57
   8  -4  -9    2.44    0.54
  -7   4   9    2.36    0.61
   7   4  -9    1.77    0.65
   7  -4  -9    1.21    0.40
  -7  -4   9    2.03    0.54
  -6   4   9    0.79    0.44
  -6  -4   9    1.13    0.40
  -6  -4   9    0.34    0.34
   6  -4  -9    1.45    0.44
  -5  -4   9    4.52    0.50
  -5  -4   9    6.11    0.76
   5  -4  -9    5.17    0.61
  -5  -4   9    5.87    0.66
  -5  -4   9    4.96    0.61
  -5   4   9    4.75    0.67
   4  -4  -9    0.74    0.27
   4  -4  -9    0.54    0.24
  -4  -4   9    0.93    0.33
  -4   4   9    0.33    0.31
  -4  -4   9    0.70    0.36
  -4  -4   9    1.05    0.25
  -4  -4   9    0.92    0.28
  -3   4   9    6.39    0.67
   3   4  -9    7.36    0.62
   3  -4  -9    7.26    0.63
  -3  -4   9    7.57    0.69
   3  -4  -9    6.71    0.61
  -3  -4   9    6.19    0.55
   2  -4  -9   -0.04    0.17
  -2   4   9    0.06    0.21
  -2  -4   9    0.25    0.23
   2   4  -9    0.17    0.17
  -2  -4   9    0.01    0.12
  -2   4   9   -0.11    0.12
  -1  -4   9    0.35    0.17
  -1   4   9    0.18    0.15
  -1   4   9    0.41    0.23
   1  -4  -9    0.45    0.23
   1   4  -9    0.33    0.19
  -1  -4   9    0.68    0.26
   0   4   9    4.47    0.42
   0  -4   9    5.17    0.52
   0  -4  -9    4.55    0.50
   0   4  -9    4.13    0.48
   0  -4   9    4.46    0.43
   0   4   9    5.65    0.54
  -1   4  -9    4.08    0.45
  -1  -4  -9    3.40    0.45
   1  -4   9    3.48    0.40
   1   4   9    4.45    0.51
  -1  -4  -9    3.97    0.37
  -1   4  -9    3.03    0.40
   1   4   9    3.74    0.36
  -2   4  -9   11.18    0.87
  -2   4  -9   11.93    0.92
  -2  -4  -9   11.11    0.88
   2   4   9   11.87    0.77
   2   4   9   10.31    0.92
  -2  -4  -9   11.93    0.91
   2  -4   9   11.98    0.86
  -3  -4  -9    1.92    0.37
   3   4   9    1.76    0.24
  -3   4  -9    2.16    0.31
  -3  -4  -9    1.37    0.33
   3  -4   9    1.20    0.31
   3   4   9    1.99    0.42
  -3   4  -9    2.62    0.42
  -4  -4  -9   -0.13    0.27
  -4  -4  -9   -0.07    0.20
  -4   4  -9    0.34    0.30
   4  -4   9    0.39    0.27
   4   4   9   -0.58    0.28
  -5  -4  -9    0.90    0.33
  -5   4  -9    1.47    0.42
   5   4   9    0.82    0.45
   5  -4   9    1.16    0.37
  -5  -4  -9    1.61    0.47
   6  -4   9    3.48    0.68
   6  -4   9    3.42    0.56
  -6   4  -9    3.38    0.63
   6   4   9    3.47    0.66
  -6  -4  -9    3.74    0.67
   7  -4   9    2.30    0.49
   7   4   9    2.45    0.67
  -7  -4  -9    3.49    0.65
  -7   4  -9    0.63    0.45
   8   4   9   -0.92    0.53
  -8   4  -9    0.24    0.38
  -8  -4  -9    0.66    0.45
   9   5  -9    1.74    0.76
  -9  -5   9    1.38    0.74
   8   5  -9   -0.30    0.59
   8  -5  -9   -0.05    0.31
  -8  -5   9    0.57    0.52
  -8   5   9    0.56    0.49
  -7   5   9    1.44    0.53
   7   5  -9    2.70    0.71
  -7  -5   9    2.86    0.58
   7  -5  -9    2.72    0.53
  -6  -5   9    1.44    0.44
   6  -5  -9    1.45    0.42
  -6  -5   9    1.56    0.43
   6   5  -9    0.54    0.51
  -6   5   9    1.67    0.51
   5   5  -9   -0.38    0.32
  -5  -5   9    0.56    0.30
  -5  -5   9    0.29    0.21
   5  -5  -9   -0.01    0.24
  -5  -5   9    0.69    0.34
  -5   5   9   -0.09    0.30
  -4   5   9   35.09    2.43
  -4  -5   9   33.52    2.14
   4   5  -9   33.03    2.39
   4  -5  -9   36.66    2.29
   4  -5  -9   35.20    2.26
  -4  -5   9   38.34    2.41
  -3  -5   9    4.54    0.45
   3  -5  -9    5.00    0.51
  -3   5   9    5.17    0.61
  -3  -5   9    4.16    0.57
   3   5  -9    4.67    0.50
   3  -5  -9    4.65    0.52
  -2  -5   9    9.62    0.70
  -2   5   9    8.51    0.78
   2  -5  -9    9.56    0.73
   2   5  -9    9.26    0.74
  -2  -5   9    9.42    0.82
   2  -5  -9    9.16    0.77
   1  -5  -9   -0.10    0.21
  -1  -5   9    0.53    0.26
  -1  -5   9    0.40    0.18
   1   5  -9    0.56    0.20
  -1   5   9    0.64    0.21
  -1   5   9    0.76    0.26
   0  -5   9    1.23    0.24
   0   5  -9    1.38    0.29
   0  -5  -9    1.36    0.31
   0   5   9    1.15    0.18
   0   5   9    1.24    0.30
   0   5   9    0.93    0.20
   0  -5   9    1.14    0.30
  -1  -5  -9    0.90    0.27
   1   5   9    0.58    0.16
  -1  -5  -9    0.48    0.19
   1  -5   9    0.52    0.23
  -1   5  -9    0.75    0.25
   1  -5   9    0.26    0.18
   1   5   9    0.41    0.26
   2   5   9   25.25    1.81
   2  -5   9   25.76    1.66
  -2   5  -9   25.63    1.80
   2   5   9   26.68    1.55
  -2   5  -9   25.15    1.72
  -2  -5  -9   24.99    1.75
  -2  -5  -9   26.08    1.76
  -3   5  -9    1.28    0.27
  -3  -5  -9    1.14    0.34
  -3  -5  -9    1.13    0.31
   3  -5   9    0.76    0.29
   3   5   9    1.85    0.43
  -3   5  -9    1.25    0.35
  -4   5  -9   29.66    2.19
  -4  -5  -9   32.07    2.11
   4  -5   9   31.24    2.03
   4   5   9   29.01    2.19
  -4  -5  -9   33.60    2.21
  -5  -5  -9    9.28    0.95
  -5  -5  -9    9.49    0.88
   5   5   9    9.44    0.96
  -5   5  -9   11.14    0.96
   5  -5   9    9.76    0.88
  -6   5  -9    4.53    0.71
   6  -5   9    4.71    0.66
   6   5   9    4.36    0.75
  -6  -5  -9    5.19    0.77
  -7   5  -9    9.07    1.04
   7   5   9    8.45    1.11
   7  -5   9    8.54    0.93
  -7  -5  -9    9.51    1.08
  -8  -5  -9    7.28    0.97
   8  -5   9    7.39    0.89
   8   5   9    7.36    1.12
  -8   5  -9    6.11    0.92
  -8  -6   9    2.58    0.67
   8  -6  -9    2.63    0.55
  -8   6   9    2.04    0.60
   8   6  -9    2.50    0.75
   7  -6  -9    1.85    0.45
  -7   6   9    1.03    0.51
   7   6  -9    0.63    0.54
  -7  -6   9    1.28    0.45
  -6  -6   9    8.07    0.87
   6   6  -9    7.39    0.96
  -6   6   9    7.24    0.92
  -6  -6   9    8.14    0.83
   6  -6  -9    8.34    0.86
   5  -6  -9    7.12    0.76
  -5  -6   9    6.53    0.75
  -5   6   9    6.03    0.80
  -4  -6   9    7.05    0.77
   4   6  -9    7.41    0.74
  -4   6   9    7.36    0.79
  -4  -6   9    6.38    0.57
   4  -6  -9    7.17    0.71
   3  -6  -9    2.50    0.39
   3   6  -9    3.15    0.43
   3  -6  -9    1.87    0.37
  -3   6   9    1.44    0.38
  -3  -6   9    2.70    0.34
  -3  -6   9    1.66    0.43
  -2   6   9   13.62    1.25
   2   6  -9   17.88    1.26
   2  -6  -9   18.59    1.28
  -2  -6   9   16.49    1.29
   2  -6  -9   17.30    1.18
  -2  -6   9   20.41    1.17
   1   6  -9    2.22    0.35
  -1   6   9    1.32    0.34
  -1  -6   9    1.71    0.28
   1  -6  -9    1.67    0.36
  -1  -6   9    1.62    0.38
   1  -6  -9    1.44    0.26
   0  -6   9    8.43    0.69
   0   6   9    9.37    0.67
   0  -6   9    8.78    0.77
   0   6  -9    8.97    0.76
   0   6   9    8.71    0.78
   0  -6  -9    9.26    0.79
  -1   6  -9    0.22    0.21
  -1  -6  -9   -0.02    0.16
   1  -6   9    0.12    0.21
   1  -6   9   -0.10    0.16
   1   6   9    0.23    0.24
   1   6   9    0.12    0.14
  -1  -6  -9   -0.10    0.19
  -2   6  -9    1.45    0.31
  -2  -6  -9    1.36    0.35
  -2  -6  -9    1.49    0.31
  -2   6  -9    1.69    0.36
   2   6   9    1.36    0.37
   2  -6   9    1.62    0.33
  -3   6  -9   74.85    5.02
  -3  -6  -9   78.94    4.85
  -3  -6  -9   74.78    4.96
   3   6   9   74.32    4.99
   3  -6   9   78.71    4.58
  -3   6  -9   81.74    4.78
  -4  -6  -9    6.17    0.70
  -4   6  -9    7.07    0.78
   4  -6   9    6.62    0.71
  -4  -6  -9    6.19    0.68
   4   6   9    7.83    0.84
   5   6   9    5.12    0.73
  -5  -6  -9    4.81    0.68
  -5   6  -9    5.09    0.70
  -5  -6  -9    4.40    0.61
   5  -6   9    4.24    0.60
  -6  -6  -9    9.70    0.99
   6  -6   9   10.40    0.95
   6   6   9    9.92    1.02
  -6   6  -9   10.06    0.99
  -7   6  -9    8.01    1.00
   7   6   9    7.18    1.03
   7  -6   9    8.53    0.92
  -7  -6  -9    7.09    0.93
   8  -6   9    4.74    0.72
  -8  -6  -9    4.34    0.77
  -8   7   9    0.38    0.49
   8  -7  -9    1.55    0.49
  -8  -7   9    1.40    0.61
  -7   7   9    0.42    0.45
   7  -7  -9   -0.08    0.28
  -7  -7   9   -0.22    0.38
   6  -7  -9    9.75    0.92
  -6  -7   9    9.41    0.97
  -6   7   9    9.33    0.96
   5   7  -9    1.83    0.51
   5  -7  -9    1.92    0.45
  -5  -7   9    1.52    0.48
  -5   7   9    2.69    0.57
   4   7  -9    9.02    0.87
  -4  -7   9   10.22    0.91
  -4  -7   9    9.62    0.72
   4  -7  -9    8.37    0.82
  -4   7   9    9.41    0.90
  -3  -7   9    0.27    0.31
   3  -7  -9    0.16    0.23
   3   7  -9    0.32    0.28
   3  -7  -9    0.93    0.28
  -3   7   9    0.49    0.31
  -3  -7   9    0.27    0.20
  -2  -7   9   26.81    1.76
   2  -7  -9   26.37    1.61
   2   7  -9   19.62    1.67
  -2   7   9   23.57    1.72
  -2  -7   9   25.02    1.54
   2  -7  -9   25.32    1.69
  -1  -7   9   12.25    1.00
  -1   7   9   10.83    0.97
   1  -7  -9   14.19    1.01
   1   7  -9   10.89    0.94
   1  -7  -9   11.68    0.87
  -1  -7   9   12.91    0.88
   0   7   9   -0.01    0.21
   0  -7  -9    0.11    0.23
   0   7  -9   -0.14    0.19
   0  -7   9   -0.09    0.13
   0  -7  -9   -0.02    0.14
   0  -7   9    0.09    0.25
  -1  -7  -9    3.22    0.52
   1  -7   9    3.93    0.51
   1  -7   9    4.50    0.50
  -1   7  -9    4.14    0.55
  -1  -7  -9    4.13    0.39
   1   7   9    3.87    0.53
   1   7   9    4.72    0.48
  -2  -7  -9    2.68    0.46
   2  -7   9    2.22    0.40
  -2  -7  -9    2.77    0.39
  -2   7  -9    2.92    0.48
   2  -7   9    1.97    0.40
   2   7   9    1.95    0.46
  -3   7  -9    0.48    0.23
  -3   7  -9    1.14    0.38
   3  -7   9    0.40    0.29
  -3  -7  -9    0.96    0.36
  -3  -7  -9    0.60    0.28
   3   7   9    0.79    0.38
  -4  -7  -9   11.53    0.98
   4   7   9    9.89    1.01
  -4   7  -9   11.08    1.02
  -4  -7  -9   12.67    1.02
   4  -7   9   11.70    0.98
   5   7   9    9.38    1.02
  -5  -7  -9    8.65    0.85
  -5   7  -9    8.50    0.87
   5  -7   9    7.84    0.86
  -5  -7  -9    9.00    0.85
   6  -7   9   -0.27    0.30
  -6   7  -9   -0.17    0.28
   6   7   9    0.58    0.45
  -6  -7  -9    0.28    0.34
  -7  -7  -9    0.64    0.41
  -7   7  -9    0.39    0.35
   7  -7   9    0.53    0.39
   7   7   9   -0.13    0.55
   8  -7   9    2.54    0.62
  -8  -8   9    0.08    0.54
   7  -8  -9    0.37    0.30
  -7   8   9    1.18    0.52
  -6  -8   9    0.69    0.45
  -6   8   9    0.87    0.45
   6  -8  -9    0.59    0.34
   6   8  -9    1.20    0.50
  -5  -8   9    0.15    0.36
   5  -8  -9    0.32    0.30
  -5   8   9    1.11    0.44
   5   8  -9   -0.07    0.36
   4   8  -9    0.63    0.37
   4  -8  -9    0.53    0.33
  -4   8   9    0.63    0.36
  -4  -8   9    0.38    0.40
   3  -8  -9   17.36    1.15
  -3   8   9   12.58    1.16
   3  -8  -9   14.67    1.14
   3   8  -9   14.23    1.15
  -3  -8   9   14.61    1.01
  -3  -8   9   13.82    1.22
   2  -8  -9   11.69    0.97
  -2  -8   9   12.00    1.02
   2   8  -9   10.40    0.94
  -2  -8   9   10.48    0.83
   2  -8  -9   11.85    0.89
  -2   8   9   11.79    0.99
   1   8  -9   21.30    1.66
  -1  -8   9   24.54    1.55
   1  -8  -9   23.79    1.54
   1  -8  -9   25.93    1.72
  -1  -8   9   23.70    1.70
  -1   8   9   23.30    1.73
   0   8   9    7.52    0.77
   0  -8   9    6.28    0.60
   0  -8  -9    6.85    0.73
   0  -8   9    6.24    0.70
   0  -8  -9    6.91    0.57
   0   8  -9    6.33    0.67
   1  -8   9    2.56    0.46
   1  -8   9    3.16    0.45
  -1  -8  -9    2.76    0.48
   1   8   9    2.18    0.45
  -1   8  -9    3.54    0.50
  -2  -8  -9   18.50    1.39
   2  -8   9   15.64    1.30
   2   8   9   17.58    1.40
  -2   8  -9   17.48    1.39
  -2  -8  -9   18.59    1.34
   2  -8   9   19.10    1.30
   3  -8   9    4.45    0.56
  -3   8  -9    3.25    0.57
  -3  -8  -9    3.30    0.50
   3   8   9    3.43    0.60
  -3  -8  -9    3.05    0.53
  -4   8  -9    1.62    0.46
  -4  -8  -9    1.46    0.44
   4   8   9    1.72    0.51
   4  -8   9    1.14    0.42
  -4  -8  -9    1.60    0.40
  -5   8  -9    0.37    0.35
  -5  -8  -9    0.37    0.35
   5  -8   9    0.40    0.34
  -5  -8  -9    0.21    0.33
   5   8   9    0.41    0.42
  -6  -8  -9    2.99    0.59
  -6   8  -9    4.15    0.66
   6  -8   9    3.23    0.60
  -6  -8  -9    2.22    0.54
   6   8   9    2.37    0.64
   7   8   9    0.16    0.51
   7  -8   9    0.75    0.43
  -7  -8  -9    0.30    0.36
  -7   8  -9    0.18    0.45
   7   9  -9    2.46    0.64
   7  -9  -9    2.89    0.60
  -7   9   9    2.24    0.64
  -6  -9   9   11.42    1.14
  -6   9   9   10.49    1.09
   6  -9  -9   12.21    1.09
   6   9  -9   13.45    1.20
  -5  -9   9   -0.31    0.36
   5  -9  -9    0.27    0.30
  -5   9   9   -0.04    0.34
   5   9  -9   -0.08    0.38
  -4   9   9    9.29    0.96
  -4  -9   9    9.79    1.01
   4   9  -9   10.49    0.96
   4  -9  -9   10.03    0.90
   3  -9  -9    1.34    0.38
  -3  -9   9    0.94    0.42
   3   9  -9    0.70    0.36
  -3   9   9    0.90    0.36
   3  -9  -9    0.74    0.31
   2   9  -9    4.11    0.58
   2  -9  -9    4.98    0.56
  -2  -9   9    3.82    0.62
   2  -9  -9    4.56    0.60
  -2  -9   9    4.33    0.47
  -2   9   9    4.74    0.64
   1   9  -9   14.18    1.16
   1  -9  -9   14.53    1.19
   1  -9  -9   15.76    1.09
  -1   9   9   15.04    1.23
  -1  -9   9   16.03    1.08
  -1  -9   9   13.15    1.20
   0  -9   9    9.91    0.94
   0  -9  -9   10.79    0.95
   0  -9  -9   10.82    0.80
   0  -9   9   10.55    0.84
   0   9   9   10.10    0.94
   0   9  -9   10.17    0.91
  -1  -9  -9   15.44    1.23
   1  -9   9   16.20    1.12
   1   9   9   13.62    1.19
   1  -9   9   15.45    1.18
  -1   9  -9   13.39    1.19
   2   9   9   68.35    4.63
  -2  -9  -9   73.17    4.55
   2  -9   9   75.67    4.27
   2  -9   9   66.40    4.44
  -2   9  -9   70.81    4.66
  -3   9  -9    1.32    0.41
   3   9   9    0.43    0.40
   3  -9   9    0.87    0.36
  -3  -9  -9    1.08    0.36
  -3  -9  -9    0.51    0.38
  -4  -9  -9    1.42    0.45
  -4  -9  -9    1.37    0.38
   4  -9   9    0.37    0.36
   4   9   9    0.79    0.41
  -4   9  -9    1.07    0.41
  -5  -9  -9    7.61    0.84
   5   9   9    7.60    0.95
  -5   9  -9    6.51    0.85
   5  -9   9    7.41    0.85
  -5  -9  -9    7.37    0.85
  -6  -9  -9    2.60    0.57
   6   9   9    1.86    0.59
   6  -9   9    2.35    0.58
  -6  -9  -9    2.72    0.55
  -6   9  -9    1.97    0.55
  -7  -9  -9    5.46    0.76
   7  -9   9    3.96    0.73
  -7   9  -9    4.04    0.83
   7   9   9    4.71    0.89
   7 -10  -9    0.32    0.46
  -7  10   9    0.67    0.47
   7  10  -9    1.11    0.47
  -7 -10   9    0.36    0.57
   6  10  -9    2.41    0.60
  -6 -10   9    1.85    0.61
  -6  10   9    0.70    0.44
   6 -10  -9    1.47    0.50
  -5 -10   9    2.60    0.63
  -5  10   9    4.08    0.66
   5  10  -9    4.26    0.67
   5 -10  -9    3.90    0.62
  -4  10   9    8.52    0.92
  -4 -10   9    6.75    0.88
   4 -10  -9    6.79    0.81
   4  10  -9    6.75    0.83
  -3  10   9   20.80    1.67
  -3 -10   9   22.30    1.73
   3  10  -9   21.12    1.66
   3 -10  -9   22.96    1.62
   3 -10  -9   23.34    1.59
   2 -10  -9    4.84    0.57
  -2 -10   9    4.50    0.68
   2 -10  -9    5.13    0.64
  -2 -10   9    4.09    0.49
   2  10  -9    5.80    0.66
  -2  10   9    4.67    0.70
   1 -10  -9    8.03    0.73
  -1 -10   9    9.18    0.91
   1  10  -9    6.96    0.80
  -1  10   9    8.14    0.88
   1 -10  -9    9.87    0.89
  -1 -10   9    9.89    0.75
   0  10  -9    3.49    0.57
   0  10   9    4.00    0.62
   0 -10   9    3.79    0.49
   0 -10   9    3.36    0.56
   0 -10  -9    4.14    0.61
   1 -10   9   10.34    0.87
  -1 -10  -9   10.65    0.99
   1 -10   9   10.17    0.93
  -1  10  -9    9.84    0.96
   1  10   9   10.23    0.99
  -2 -10  -9   20.82    1.57
  -2  10  -9   19.80    1.55
   2 -10   9   19.08    1.47
   2  10   9   17.69    1.52
   2 -10   9   21.44    1.45
   3 -10   9    5.99    0.70
  -3 -10  -9    4.61    0.71
   3  10   9    6.60    0.84
  -3  10  -9    5.16    0.75
  -4  10  -9    8.51    0.94
   4 -10   9    6.94    0.83
  -4 -10  -9    7.30    0.77
  -4 -10  -9    6.80    0.86
   4  10   9    7.78    0.93
  -5 -10  -9    0.33    0.34
  -5 -10  -9    0.24    0.38
  -5  10  -9    0.02    0.34
   5  10   9    0.27    0.44
   5 -10   9    0.28    0.36
   6 -10   9    2.35    0.57
   6  10   9    3.43    0.73
  -6 -10  -9    2.97    0.63
  -6  10  -9    2.57    0.64
  -6 -10  -9    2.35    0.52
  -7 -10  -9    4.88    0.74
   7  11  -9    1.57    0.58
  -7 -11   9    1.79    0.70
  -6 -11   9   -0.19    0.50
   6  11  -9    0.35    0.39
  -6  11   9   -0.23    0.32
   6 -11  -9    0.09    0.42
  -5  11   9    0.31    0.36
   5  11  -9    0.66    0.41
  -5 -11   9    0.33    0.45
   5 -11  -9    0.52    0.37
   4  11  -9    1.24    0.45
  -4  11   9    1.06    0.45
  -4 -11   9    1.79    0.54
   4 -11  -9    1.08    0.44
   3  11  -9    0.14    0.37
  -3  11   9   -0.20    0.29
  -3 -11   9    0.18    0.39
   3 -11  -9   -0.07    0.31
   2  11  -9    6.31    0.77
   2 -11  -9    5.98    0.77
   2 -11  -9    7.08    0.74
  -2  11   9    6.47    0.79
  -2 -11   9    6.11    0.81
  -1  11   9    0.18    0.36
   1 -11  -9    0.27    0.37
  -1 -11   9    0.30    0.36
   1  11  -9    0.15    0.31
  -1 -11   9    0.64    0.27
   0 -11  -9    1.16    0.45
   0 -11   9    1.23    0.33
   0  11  -9    0.96    0.38
   0 -11   9    0.46    0.38
   0  11   9    0.37    0.38
  -1 -11  -9    5.06    0.74
   1 -11   9    4.96    0.66
  -1  11  -9    5.59    0.73
   1  11   9    4.74    0.74
   1 -11   9    4.98    0.61
  -2  11  -9    3.02    0.58
   2  11   9    2.23    0.49
   2 -11   9    1.47    0.46
  -2 -11  -9    2.29    0.54
   2 -11   9    2.28    0.46
   3 -11   9    0.63    0.38
   3  11   9   -0.19    0.38
  -3 -11  -9   -0.14    0.34
  -3  11  -9    0.44    0.36
  -4 -11  -9    1.60    0.45
  -4  11  -9    1.44    0.49
   4 -11   9    1.05    0.44
   4  11   9    1.18    0.56
  -5  11  -9    1.78    0.56
  -5 -11  -9    2.43    0.60
   5  11   9    3.59    0.69
   5 -11   9    2.64    0.60
  -5 -11  -9    3.00    0.54
  -6  11  -9    1.18    0.54
  -6 -11  -9    1.99    0.50
   6 -11   9    2.06    0.57
  -6 -11  -9    1.72    0.65
   6  11   9    1.31    0.60
   6 -12  -9   -0.53    0.42
  -6 -12   9    0.65    0.62
   6  12  -9    0.40    0.42
  -6  12   9    0.57    0.45
  -5  12   9    0.36    0.44
  -5 -12   9    0.32    0.52
   5  12  -9    0.90    0.43
   5 -12  -9    0.59    0.45
  -4  12   9   -0.26    0.35
   4 -12  -9   -0.11    0.35
   4  12  -9    0.62    0.36
  -4 -12   9   -0.14    0.41
  -3  12   9    1.22    0.42
   3  12  -9    0.79    0.40
   3 -12  -9    0.34    0.35
  -3 -12   9    0.93    0.46
   2 -12  -9    0.75    0.38
  -2  12   9    0.95    0.41
   2  12  -9    1.44    0.45
  -2 -12   9    0.96    0.47
   2 -12  -9    1.41    0.41
  -1 -12   9    4.76    0.74
  -1 -12   9    5.48    0.59
  -1  12   9    4.69    0.76
   1 -12  -9    6.57    0.78
   1  12  -9    5.70    0.73
   0  12  -9    1.88    0.48
   0 -12   9    1.35    0.45
   0  12   9    1.13    0.49
   0 -12   9    1.12    0.33
   0 -12  -9    1.76    0.47
  -1  12  -9    7.38    0.85
   1  12   9    7.16    0.89
   1 -12   9    6.17    0.78
   1 -12   9    5.76    0.67
  -1 -12  -9    5.33    0.80
  -2 -12  -9    1.63    0.50
   2 -12   9    0.26    0.31
   2  12   9    1.23    0.41
  -2  12  -9    0.56    0.38
  -3  12  -9    0.60    0.40
   3 -12   9    0.06    0.28
  -3 -12  -9    0.40    0.40
   3  12   9    0.44    0.41
   4 -12   9    3.42    0.64
  -4 -12  -9    2.49    0.63
   4  12   9    3.26    0.68
  -4  12  -9    3.02    0.64
  -5 -12  -9    1.08    0.55
   5  12   9    1.56    0.53
   5 -12   9    1.07    0.53
  -5  12  -9    0.44    0.45
  -6 -12  -9    0.42    0.60
   5  13  -9    2.48    0.57
   5 -13  -9    1.56    0.59
  -5  13   9    2.21    0.55
  -5 -13   9    1.93    0.67
  -4 -13   9   10.69    1.18
   4  13  -9    9.06    0.96
  -4  13   9    8.88    1.05
   4 -13  -9    9.07    1.00
   3  13  -9    4.13    0.70
  -3  13   9    5.00    0.75
   3 -13  -9    4.36    0.69
  -3 -13   9    5.50    0.81
  -2 -13   9    0.79    0.43
   2 -13  -9    0.65    0.44
   2  13  -9    1.40    0.46
  -2  13   9    1.03    0.42
   1 -13  -9    8.04    0.94
  -1  13   9    8.01    1.00
   1  13  -9    8.57    0.93
  -1 -13   9    7.26    0.95
   0 -13  -9   -0.09    0.38
   0  13   9    0.29    0.38
   0 -13   9    0.20    0.41
   0  13  -9    0.32    0.39
   0 -13   9    0.93    0.33
   1 -13   9    0.97    0.44
   1 -13   9    1.43    0.40
   1  13   9    1.27    0.48
  -1 -13  -9    1.45    0.52
  -1  13  -9    1.31    0.48
  -2  13  -9    9.29    1.05
  -2 -13  -9   10.26    1.10
   2 -13   9    8.89    0.91
   2  13   9    8.30    1.04
   3  13   9    2.11    0.57
  -3  13  -9    1.45    0.53
  -3 -13  -9    2.83    0.65
   3 -13   9    1.81    0.51
   4  13   9    2.84    0.66
   4 -13   9    2.50    0.60
  -4 -13  -9    1.61    0.62
  -4  13  -9    3.08    0.67
   5  13   9    4.53    0.83
  -5 -13  -9    5.38    0.93
   5 -13   9    6.40    0.91
  -5  13  -9    3.55    0.80
   5 -14  -9    0.99    0.58
  -5  14   9    1.42    0.52
   4  14  -9    3.29    0.67
   4 -14  -9    1.88    0.62
  -4  14   9    2.31    0.56
  -4 -14   9    2.59    0.73
  -3 -14   9    2.48    0.61
  -3  14   9    2.28    0.55
   3  14  -9    2.74    0.59
   2 -14  -9    5.43    0.78
  -2 -14   9    4.99    0.82
   2  14  -9    5.33    0.75
  -2  14   9    4.44    0.74
  -1  14   9    0.09    0.34
   1 -14  -9    0.91    0.47
   1  14  -9    0.24    0.34
  -1 -14   9    0.49    0.39
   0 -14   9    2.42    0.58
   0  14  -9    1.63    0.51
   0  14   9    2.66    0.59
   0 -14  -9    2.00    0.59
   1 -14   9    1.71    0.42
   1 -14   9    1.28    0.49
  -1 -14  -9    1.84    0.56
   1  14   9    1.29    0.48
  -1  14  -9    2.31    0.59
  -2  14  -9   -0.17    0.40
  -2 -14  -9   -0.11    0.38
   2 -14   9    0.30    0.33
   2  14   9    0.50    0.47
  -3 -14  -9    8.80    1.12
   3 -14   9   10.40    1.04
   3  14   9    8.43    1.00
  -3  14  -9    9.68    1.16
   4  14   9    0.26    0.39
   4 -14   9   -0.60    0.36
  -4 -14  -9    0.24    0.53
  -4  14  -9   -0.64    0.39
   4 -15  -9    0.07    0.52
  -4  15   9    1.00    0.45
  -3 -15   9    0.80    0.47
   3  15  -9    1.20    0.46
  -3  15   9    0.52    0.40
   2  15  -9    0.12    0.38
  -2  15   9    0.52    0.44
  -2 -15   9   -0.25    0.38
  -1  15   9    0.35    0.38
  -1 -15   9    0.46    0.41
   1 -15  -9    0.01    0.41
   1  15  -9    0.43    0.38
   0  15   9    0.90    0.46
   0 -15   9    0.59    0.42
   0  15  -9    0.53    0.45
   0 -15  -9    0.34    0.42
   1  15   9    0.98    0.49
   1 -15   9    0.10    0.30
  -1 -15  -9    0.70    0.49
  -1  15  -9    0.22    0.49
   1 -15   9    0.65    0.41
   2  15   9    5.16    0.79
  -2 -15  -9    3.75    0.77
  -2  15  -9    4.23    0.84
   2 -15   9    3.88    0.65
   3  15   9    0.79    0.45
  -3  15  -9    1.56    0.63
   3 -15   9    2.00    0.56
  -3 -15  -9    1.33    0.69
  -3  16   9    0.54    0.40
   2  16  -9    2.21    0.58
  -2  16   9    1.04    0.49
  -2 -16   9    1.43    0.58
   1 -16  -9    0.96    0.49
  -1  16   9    0.32    0.44
  -1 -16   9    0.69    0.47
   1  16  -9    0.63    0.49
   0  16   9    3.93    0.76
   0 -16  -9    4.82    0.79
   0 -16   9    3.68    0.72
   0  16  -9    2.49    0.76
  -1 -16  -9    0.68    0.50
  -1  16  -9    0.58    0.59
   1  16   9    1.04    0.48
   2  16   9    0.60    0.47
   2 -16   9    0.69    0.45
   1 -17  -9    3.30    0.76
   0 -17   9    0.62    0.51
   0 -17  -9    0.65    0.54
   1  17   9    0.83    0.51
   8   0 -10   11.17    1.03
  -8   0  10   13.09    1.41
   7   0 -10    1.71    0.43
  -7   0  10    2.07    0.65
   6   0 -10    5.84    0.68
  -6   0  10    7.10    0.84
  -5   0  10   28.10    2.07
   5   0 -10   29.81    1.93
   5   0 -10   30.66    2.00
   4   0 -10   58.51    3.45
  -4   0  10   51.67    3.47
  -4   0  10   53.60    3.55
  -4   0  10   53.97    3.25
  -3   0  10    4.05    0.46
  -3   0  10    5.07    0.52
   3   0 -10    4.40    0.49
   2   0 -10   14.01    1.09
  -2   0  10   15.89    1.12
   2   0 -10   15.06    1.02
  -2   0  10   16.82    1.06
  -1   0  10  179.52    9.71
   1   0 -10  172.34   10.34
   1   0 -10  170.00   10.62
  -1   0  10  163.95   10.64
   0   0  10    4.12    0.39
   0   0 -10    4.43    0.44
   0   0  10    3.81    0.39
   0   0 -10    3.94    0.35
   1   0  10    0.64    0.19
  -1   0 -10    0.91    0.23
  -1   0 -10    0.71    0.19
   2   0  10    1.99    0.28
  -2   0 -10    2.23    0.32
  -2   0 -10    1.60    0.30
   2   0  10    2.27    0.36
   3   0  10    6.35    0.64
   3   0  10    5.53    0.51
  -3   0 -10    5.69    0.59
  -3   0 -10    5.21    0.55
   4   0  10  113.12    6.11
  -4   0 -10  112.73    6.82
   4   0  10   93.02    6.70
  -4   0 -10  105.77    6.46
  -5   0 -10  118.60    7.41
   5   0  10  115.75    6.62
   5   0  10  109.89    7.28
  -6   0 -10    3.04    0.62
   6   0  10    2.04    0.58
  -7   0 -10   18.28    1.55
   7   0  10   16.55    1.47
  -8   0 -10    0.08    0.39
   8   0  10    0.66    0.58
  -8  -1  10   -0.12    0.61
  -8   1  10    0.26    0.57
   8  -1 -10    0.55    0.35
   7   1 -10    3.17    0.54
   7  -1 -10    3.49    0.57
  -7   1  10    3.11    0.66
  -7  -1  10    4.68    0.82
   6   1 -10   21.32    1.49
  -6   1  10   19.21    1.63
   6  -1 -10   21.35    1.52
  -6  -1  10   23.92    1.71
  -5  -1  10    7.48    0.72
   5  -1 -10    8.65    0.76
   5   1 -10    7.28    0.76
  -5  -1  10    9.06    0.83
  -5   1  10    8.07    0.87
  -4  -1  10   12.50    0.99
   4  -1 -10   12.37    0.93
  -4   1  10   12.35    0.91
  -4  -1  10   12.03    0.91
   4   1 -10   12.44    0.96
  -4  -1  10   11.90    0.90
  -4   1  10   10.38    0.96
  -3   1  10   12.99    1.00
  -3   1  10   12.58    0.92
   3  -1 -10   13.18    0.96
  -3  -1  10   13.90    0.93
  -3  -1  10   13.30    0.97
  -3   1  10   11.68    0.87
   3   1 -10   13.32    0.99
   3   1 -10   12.40    0.91
  -2   1  10    6.51    0.60
   2   1 -10    5.80    0.58
  -2   1  10    6.09    0.55
   2  -1 -10    6.70    0.58
  -2  -1  10    5.99    0.56
   2   1 -10    6.13    0.49
  -2  -1  10    7.64    0.57
   1  -1 -10   -0.09    0.19
   1   1 -10    0.37    0.15
  -1   1  10    0.63    0.20
  -1  -1  10    0.22    0.15
  -1   1  10    0.50    0.18
   1   1 -10   -0.03    0.17
   0  -1 -10    0.20    0.11
   0   1  10    0.05    0.15
   0   1  10    0.05    0.10
   0  -1  10    0.00    0.12
   0  -1 -10    0.07    0.17
   0   1 -10    0.06    0.17
   0   1 -10   -0.12    0.11
   1  -1  10    0.18    0.13
  -1  -1 -10    0.06    0.17
  -1   1 -10   -0.04    0.13
  -1  -1 -10    0.14    0.14
   1   1  10    0.02    0.17
   1   1  10    0.06    0.12
  -1   1 -10    0.03    0.15
  -2   1 -10    4.70    0.51
  -2   1 -10    4.53    0.47
   2   1  10    5.20    0.53
   2  -1  10    4.77    0.45
  -2  -1 -10    4.36    0.47
   2   1  10    5.31    0.44
  -2  -1 -10    4.73    0.48
   3  -1  10    9.46    0.81
  -3   1 -10    9.40    0.80
   3  -1  10    9.47    0.73
  -3  -1 -10    8.93    0.75
  -3   1 -10    8.19    0.73
  -3  -1 -10   10.40    0.83
   3   1  10    8.36    0.81
   3   1  10   10.34    0.71
  -4  -1 -10   29.06    1.88
   4  -1  10   28.55    1.97
   4   1  10   27.79    1.97
  -4   1 -10   27.18    2.01
  -4  -1 -10   27.10    2.02
  -4   1 -10   28.56    1.85
   4  -1  10   27.32    1.79
   4   1  10   28.98    1.77
   5   1  10   60.50    3.90
   5  -1  10   57.70    3.86
  -5   1 -10   58.52    3.95
   5  -1  10   57.90    3.52
  -5  -1 -10   58.57    3.97
   6  -1  10    1.03    0.35
  -6  -1 -10    1.07    0.49
   6   1  10    1.52    0.52
   6  -1  10    1.45    0.50
  -6   1 -10    1.95    0.52
  -7  -1 -10    7.54    0.99
  -7   1 -10    6.43    0.91
   7   1  10    4.51    0.81
   7  -1  10    7.80    0.92
  -8  -1 -10    5.52    0.85
   8   1  10    4.04    0.86
  -8   1 -10    4.46    0.79
   8  -1  10    4.39    0.89
   9   2 -10    0.45    0.63
   9  -2 -10    0.24    0.37
   8  -2 -10    1.38    0.41
  -8   2  10   -0.76    0.55
  -7   2  10    5.54    0.84
   7   2 -10    6.88    0.73
  -7  -2  10    6.13    0.92
   7  -2 -10    6.73    0.77
  -6  -2  10    3.15    0.64
  -6  -2  10    2.96    0.54
   6   2 -10    2.65    0.45
  -6   2  10    1.99    0.55
   6  -2 -10    2.91    0.50
   5   2 -10    3.16    0.47
   5  -2 -10    2.57    0.45
  -5   2  10    3.27    0.55
  -5  -2  10    2.46    0.44
  -5  -2  10    2.94    0.53
  -5  -2  10    2.56    0.40
  -4  -2  10   36.95    2.57
   4  -2 -10   43.58    2.73
   4  -2 -10   44.22    2.65
  -4  -2  10   44.42    2.84
  -4   2  10   41.09    2.85
   4   2 -10   46.80    2.80
  -4  -2  10   42.25    2.79
   3   2 -10   16.78    1.22
  -3  -2  10   16.37    1.19
   3  -2 -10   16.61    1.18
  -3   2  10   16.03    1.22
   3   2 -10   16.49    1.16
  -3  -2  10   16.78    1.11
  -3   2  10   15.78    1.13
   2   2 -10    0.03    0.13
  -2   2  10   -0.19    0.19
   2   2 -10   -0.10    0.17
  -2  -2  10   -0.10    0.12
   2  -2 -10    0.03    0.16
  -2   2  10    0.08    0.15
   1  -2 -10   11.88    0.91
  -1   2  10   12.32    0.91
   1   2 -10   11.53    0.92
   1   2 -10   11.76    0.87
  -1   2  10   12.28    0.86
  -1  -2  10   12.92    0.86
   0  -2  10   68.89    4.11
   0   2  10   73.83    4.10
   0   2 -10   70.49    4.39
   0   2  10   71.38    4.49
   0  -2 -10   71.68    4.39
   0   2 -10   68.85    4.49
  -1   2 -10   20.62    1.39
   1  -2  10   19.19    1.29
   1   2  10   19.38    1.26
  -1  -2 -10   20.36    1.41
  -1  -2 -10   20.70    1.36
   1   2  10   20.02    1.41
  -1   2 -10   20.84    1.40
  -2  -2 -10   16.08    1.16
  -2   2 -10   14.63    1.15
   2  -2  10   15.81    1.08
  -2   2 -10   17.18    1.14
  -2  -2 -10   15.71    1.15
   2   2  10   16.43    1.05
   2   2  10   16.33    1.19
   3  -2  10    8.80    0.73
  -3   2 -10    8.70    0.72
  -3  -2 -10    9.22    0.76
   3   2  10    9.30    0.68
  -3   2 -10    9.34    0.80
  -3  -2 -10    9.24    0.80
   3   2  10    9.08    0.83
   4   2  10    6.33    0.71
   4  -2  10    4.65    0.54
  -4   2 -10    4.85    0.49
   4   2  10    5.16    0.49
  -4  -2 -10    4.28    0.53
   4  -2  10    5.78    0.67
  -4   2 -10    5.11    0.65
  -4  -2 -10    5.68    0.70
   5  -2  10    7.07    0.73
   5  -2  10    7.78    0.83
  -5  -2 -10    8.47    0.97
  -5   2 -10    8.38    0.91
   5   2  10    8.27    0.85
   6   2  10    0.34    0.43
  -6  -2 -10    0.49    0.40
   6  -2  10    0.28    0.38
   6  -2  10   -0.13    0.24
  -6   2 -10    0.53    0.42
  -7  -2 -10    1.73    0.58
  -7   2 -10    1.57    0.50
   7   2  10    2.37    0.64
   7  -2  10    2.21    0.58
   8  -2  10   -0.13    0.56
  -8  -2 -10    0.59    0.47
  -8   2 -10    0.32    0.43
   8   2  10   -0.37    0.56
   9  -3 -10    2.68    0.60
   9   3 -10    4.46    0.94
   8   3 -10    0.25    0.59
  -8   3  10    0.10    0.52
   8  -3 -10   -0.02    0.30
  -7   3  10    0.55    0.45
   7  -3 -10    0.88    0.38
  -7  -3  10    0.89    0.45
  -6   3  10    7.23    0.89
   6  -3 -10    7.18    0.77
  -6  -3  10    7.53    0.94
  -6  -3  10    6.89    0.76
   6   3 -10    7.64    0.74
  -5  -3  10    2.60    0.39
  -5  -3  10    4.04    0.63
   5  -3 -10    3.00    0.48
  -5  -3  10    2.55    0.48
  -5  -3  10    3.32    0.49
  -5   3  10    2.12    0.50
  -4  -3  10   -0.08    0.29
  -4   3  10    0.01    0.28
  -4  -3  10   -0.07    0.16
   4  -3 -10    0.09    0.21
   4  -3 -10   -0.13    0.19
  -4  -3  10   -0.07    0.24
  -3  -3  10   36.54    2.30
   3  -3 -10   35.23    2.23
  -3  -3  10   33.61    2.10
   3   3 -10   35.56    2.27
  -3   3  10   32.02    2.32
  -3   3  10   32.27    2.12
  -2  -3  10    8.75    0.75
  -2   3  10    7.55    0.66
   2  -3 -10    8.79    0.71
  -2   3  10    8.33    0.74
   2   3 -10    8.51    0.66
  -2  -3  10    9.00    0.67
  -1  -3  10   17.53    1.14
  -1   3  10   17.32    1.14
  -1   3  10   16.27    1.23
   1   3 -10   18.21    1.20
   1   3 -10   15.80    1.22
   1  -3 -10   17.27    1.23
   0   3  10   23.57    1.47
   0  -3 -10   23.43    1.61
   0   3 -10   23.49    1.60
   0   3 -10   23.27    1.60
   0  -3  10   22.70    1.48
   0   3  10   24.71    1.62
  -1   3 -10    2.94    0.39
  -1  -3 -10    2.99    0.41
  -1  -3 -10    3.17    0.35
  -1   3 -10    2.72    0.37
   1  -3  10    3.10    0.36
   1   3  10    2.84    0.41
   1   3  10    3.07    0.33
   2  -3  10    1.12    0.26
   2   3  10    1.64    0.35
  -2  -3 -10    2.07    0.33
  -2   3 -10    1.46    0.32
  -2  -3 -10    1.88    0.34
  -2   3 -10    1.81    0.31
   2   3  10    1.49    0.23
  -3  -3 -10    1.93    0.34
  -3  -3 -10    1.70    0.37
  -3   3 -10    1.49    0.35
   3   3  10    1.46    0.39
   3  -3  10    1.55    0.32
   3   3  10    1.71    0.26
  -3   3 -10    1.36    0.29
   4   3  10    8.06    0.85
  -4  -3 -10    8.97    0.76
  -4   3 -10    8.53    0.82
   4  -3  10    8.90    0.75
  -4  -3 -10    8.08    0.86
   5  -3  10   13.76    1.09
  -5   3 -10   13.90    1.21
  -5  -3 -10   14.83    1.27
  -5  -3 -10   16.33    1.13
   5  -3  10   15.45    1.19
   5   3  10   12.07    1.18
  -6   3 -10    6.96    0.91
   6  -3  10    8.18    0.86
   6  -3  10    7.22    0.78
   6   3  10    7.70    0.92
  -6  -3 -10    8.31    0.97
   7  -3  10   -0.53    0.40
   7   3  10    0.13    0.46
  -7   3 -10   -0.16    0.35
  -7  -3 -10   -0.63    0.32
   7  -3  10    0.53    0.35
   8   3  10    8.61    1.19
  -8   3 -10    7.28    1.01
  -8  -3 -10    6.73    1.00
   9   4 -10   -0.80    0.65
  -8   4  10    0.50    0.58
   8   4 -10   -0.84    0.54
   8  -4 -10    0.49    0.34
  -7  -4  10   11.17    1.03
   7   4 -10   11.40    1.26
   7  -4 -10    9.90    0.97
  -7   4  10   10.17    1.17
  -6   4  10    1.74    0.52
  -6  -4  10    1.60    0.42
  -6  -4  10    2.21    0.46
   6  -4 -10    1.60    0.43
   6   4 -10    1.42    0.37
  -5   4  10   13.25    1.23
   5  -4 -10   16.74    1.22
  -5  -4  10   15.23    1.09
  -5  -4  10   14.90    1.25
  -5  -4  10   16.61    1.24
  -5  -4  10   15.78    1.20
   4  -4 -10   19.59    1.35
   4  -4 -10   19.07    1.34
   4   4 -10   18.40    1.39
  -4  -4  10   18.89    1.27
  -4  -4  10   19.83    1.43
  -4   4  10   18.35    1.44
   3  -4 -10    0.23    0.20
  -3   4  10    0.02    0.23
   3  -4 -10    0.41    0.23
  -3  -4  10    0.04    0.26
   3   4 -10    0.20    0.22
  -3  -4  10    0.15    0.17
   2  -4 -10   23.68    1.60
  -2  -4  10   23.37    1.64
   2   4 -10   22.82    1.58
  -2   4  10   21.84    1.63
  -2   4  10   24.34    1.52
  -2  -4  10   24.11    1.49
  -1   4  10  197.55   10.85
  -1  -4  10  197.78   11.60
   1  -4 -10  196.67   11.58
  -1  -4  10  190.38   10.85
  -1   4  10  178.78   11.95
   1   4 -10  188.78   11.94
   0   4 -10   14.10    1.05
   0  -4 -10   14.20    1.07
   0  -4  10   14.01    0.97
   0   4 -10   14.18    1.04
   0   4  10   12.57    1.04
   0   4  10   14.67    0.96
   1   4  10    2.87    0.30
  -1   4 -10    2.82    0.39
   1  -4  10    2.02    0.32
  -1  -4 -10    2.59    0.40
  -1   4 -10    3.10    0.39
   1   4  10    2.17    0.41
  -1  -4 -10    2.18    0.29
   2   4  10    1.08    0.34
  -2   4 -10    0.78    0.27
   2  -4  10    0.76    0.25
  -2  -4 -10    0.56    0.24
  -2   4 -10    0.93    0.25
   2   4  10    0.77    0.18
  -2  -4 -10    0.54    0.25
   3   4  10    6.85    0.72
  -3   4 -10    7.52    0.62
  -3  -4 -10    7.18    0.66
  -3  -4 -10    5.60    0.64
   3  -4  10    6.29    0.62
  -3   4 -10    6.74    0.67
  -4   4 -10   20.49    1.62
   4   4  10   22.24    1.64
  -4  -4 -10   22.80    1.65
   4  -4  10   20.97    1.49
  -4  -4 -10   22.46    1.56
  -5  -4 -10    5.50    0.76
  -5   4 -10    5.74    0.74
  -5  -4 -10    5.23    0.62
   5   4  10    5.81    0.77
   5  -4  10    5.34    0.65
   6  -4  10   15.29    1.12
  -6   4 -10   11.72    1.15
   6   4  10   11.78    1.15
  -6  -4 -10   12.53    1.19
  -7   4 -10    7.38    0.92
  -7  -4 -10    7.52    0.95
   7   4  10    6.24    0.93
   7  -4  10    6.31    0.80
  -8  -4 -10    4.49    0.77
   8   4  10    1.82    0.77
  -8   4 -10    3.00    0.69
   8  -5 -10    0.28    0.32
  -8  -5  10    0.21    0.45
  -8   5  10   -0.40    0.53
   8   5 -10   -0.46    0.56
   7   5 -10    0.38    0.52
  -7  -5  10   -0.14    0.34
   7  -5 -10    0.61    0.35
  -7   5  10    0.04    0.44
  -6  -5  10    4.67    0.65
   6   5 -10    5.46    0.80
  -6   5  10    4.21    0.69
   6  -5 -10    3.94    0.62
  -6  -5  10    3.59    0.60
  -5  -5  10    2.48    0.38
  -5  -5  10    2.83    0.52
  -5   5  10    3.18    0.57
   5  -5 -10    2.39    0.47
   4   5 -10    3.48    0.51
   4  -5 -10    3.03    0.44
  -4  -5  10    3.55    0.54
   4  -5 -10    2.80    0.47
  -4   5  10    3.49    0.56
  -4  -5  10    2.84    0.39
  -3  -5  10    7.39    0.73
   3  -5 -10    6.99    0.67
   3   5 -10    7.53    0.66
   3  -5 -10    7.34    0.67
  -3   5  10    6.47    0.71
  -3  -5  10    8.05    0.62
   2   5 -10   12.12    0.91
   2  -5 -10   12.33    0.94
  -2   5  10   11.43    0.95
   2  -5 -10   10.34    0.87
  -2  -5  10   12.89    0.86
  -2  -5  10   12.17    0.99
  -1   5  10    8.71    0.68
  -1   5  10    7.94    0.74
  -1  -5  10    8.40    0.76
   1   5 -10    8.70    0.72
  -1  -5  10    9.60    0.69
   1  -5 -10    7.54    0.74
   0   5 -10   11.73    0.96
   0   5  10   12.30    0.98
   0  -5  10   12.24    0.98
   0  -5 -10   13.25    1.01
   0  -5  10   12.07    0.89
   0   5  10   13.20    0.88
  -1  -5 -10   18.84    1.31
   1   5  10   15.99    1.29
   1  -5  10   17.69    1.20
  -1   5 -10   17.17    1.26
  -1   5 -10   18.19    1.30
  -1  -5 -10   18.51    1.22
   1   5  10   16.94    1.13
   2  -5  10    1.31    0.31
  -2   5 -10    1.89    0.32
  -2  -5 -10    1.18    0.35
   2   5  10    1.69    0.41
  -2  -5 -10    1.79    0.30
  -2   5 -10    1.82    0.35
   2   5  10    1.28    0.22
  -3  -5 -10    5.71    0.63
   3   5  10    6.38    0.72
  -3   5 -10    5.30    0.57
  -3  -5 -10    5.36    0.62
   3  -5  10    5.75    0.62
  -3   5 -10    6.35    0.70
  -4  -5 -10    2.71    0.51
  -4  -5 -10    2.96    0.47
   4  -5  10    3.39    0.48
  -4   5 -10    2.59    0.49
   4   5  10    3.28    0.58
  -5   5 -10   33.79    2.44
   5  -5  10   36.07    2.26
  -5  -5 -10   34.21    2.45
   5   5  10   33.13    2.42
  -5  -5 -10   33.76    2.31
  -6  -5 -10    0.06    0.39
   6  -5  10    0.81    0.37
  -6   5 -10    0.78    0.38
   6   5  10    0.95    0.46
   7   5  10    0.15    0.51
   7  -5  10    1.12    0.46
  -7   5 -10    0.89    0.41
  -7  -5 -10    1.28    0.49
   8  -5  10    4.05    0.68
  -8  -5 -10    3.88    0.74
   8  -6 -10    0.48    0.38
  -8   6  10    0.00    0.44
  -8  -6  10   -0.09    0.49
   7  -6 -10    1.59    0.44
  -7   6  10    0.91    0.48
  -7  -6  10    0.93    0.46
  -6   6  10    0.25    0.39
  -6  -6  10    0.53    0.37
  -6  -6  10    0.22    0.33
   6  -6 -10    0.32    0.33
   5  -6 -10    1.58    0.44
   5   6 -10    2.45    0.52
  -5  -6  10    1.86    0.48
  -5   6  10    2.61    0.54
  -4  -6  10    2.28    0.48
   4  -6 -10    1.78    0.40
  -4   6  10    1.93    0.49
   4   6 -10    2.61    0.46
  -4  -6  10    1.41    0.30
   3   6 -10    0.57    0.26
  -3   6  10    0.25    0.29
  -3  -6  10    0.18    0.20
   3  -6 -10    0.29    0.25
   3  -6 -10    0.36    0.24
  -3  -6  10    0.07    0.30
   2  -6 -10    4.95    0.57
  -2  -6  10    5.02    0.49
   2  -6 -10    5.09    0.54
  -2   6  10    5.08    0.62
  -2  -6  10    5.76    0.65
   2   6 -10    5.15    0.57
  -1   6  10    4.42    0.58
  -1  -6  10    4.17    0.55
   1   6 -10    4.65    0.53
  -1  -6  10    4.23    0.46
   1  -6 -10    5.21    0.58
   0  -6  10    1.55    0.29
   0  -6  10    2.06    0.39
   0   6 -10    2.03    0.35
   0   6  10    1.49    0.36
   0  -6 -10    1.53    0.37
   0   6  10    1.59    0.28
   1  -6  10   13.92    1.03
  -1  -6 -10   14.77    1.13
   1  -6  10   14.73    1.10
   1   6  10   15.71    0.97
   1   6  10   13.26    1.10
  -1   6 -10   13.60    1.11
   2  -6  10    2.10    0.38
  -2  -6 -10    1.93    0.35
  -2   6 -10    2.10    0.41
   2   6  10    1.90    0.44
  -2   6 -10    1.89    0.35
  -2  -6 -10    2.31    0.43
  -3   6 -10    4.23    0.51
  -3  -6 -10    4.43    0.54
   3   6  10    4.49    0.62
  -3  -6 -10    3.75    0.57
   3  -6  10    5.17    0.58
  -3   6 -10    4.45    0.62
  -4  -6 -10    4.47    0.58
   4  -6  10    3.23    0.53
  -4  -6 -10    4.17    0.56
  -4   6 -10    4.84    0.63
   4   6  10    3.61    0.62
  -5   6 -10    1.09    0.42
  -5  -6 -10    0.98    0.39
  -5  -6 -10    0.86    0.40
   5   6  10    1.66    0.50
   5  -6  10    1.39    0.41
  -6   6 -10    0.81    0.38
   6  -6  10    0.59    0.39
   6   6  10    0.13    0.46
  -6  -6 -10    0.20    0.35
   7  -6  10    1.42    0.45
  -7   6 -10    0.68    0.43
  -7  -6 -10    1.38    0.47
   7   6  10    1.00    0.62
  -8  -6 -10    0.24    0.39
   8  -6  10    0.41    0.39
   8  -7 -10    2.34    0.57
  -8  -7  10    2.45    0.69
  -7   7  10    3.37    0.68
   7  -7 -10    4.59    0.69
   6   7 -10    1.57    0.52
   6  -7 -10    1.30    0.42
  -6  -7  10    1.24    0.46
  -6   7  10    1.08    0.45
   5  -7 -10    1.50    0.42
   5   7 -10    1.33    0.47
  -5  -7  10    1.50    0.46
  -5   7  10    1.42    0.50
  -4  -7  10    0.98    0.43
  -4   7  10    0.45    0.36
   4  -7 -10    0.67    0.32
  -4  -7  10    1.03    0.27
   4   7 -10    0.75    0.35
  -3  -7  10   26.33    1.73
  -3   7  10   25.59    1.95
   3   7 -10   25.89    1.91
  -3  -7  10   29.09    1.97
   3  -7 -10   27.58    1.81
   3  -7 -10   29.99    1.89
  -2  -7  10    4.24    0.61
   2  -7 -10    5.82    0.60
  -2   7  10    4.20    0.61
   2   7 -10    4.40    0.55
   2  -7 -10    4.90    0.53
  -2  -7  10    4.04    0.47
   1  -7 -10    9.34    0.87
   1  -7 -10   11.07    0.80
   1   7 -10    8.44    0.84
  -1  -7  10   11.03    0.93
  -1   7  10   11.11    0.91
  -1  -7  10   11.18    0.80
   0  -7  10   20.20    1.45
   0   7 -10   17.76    1.43
   0  -7 -10   20.52    1.30
   0   7  10   18.96    1.47
   0  -7  10   20.71    1.34
   0  -7 -10   21.15    1.48
   1  -7  10    4.14    0.52
   1   7  10    3.72    0.52
   1  -7  10    3.13    0.45
  -1  -7 -10    3.99    0.54
  -1   7 -10    4.19    0.54
   1   7  10    4.08    0.40
  -2  -7 -10    7.71    0.80
  -2  -7 -10    7.34    0.69
   2  -7  10    7.27    0.70
   2   7  10    7.81    0.85
  -2   7 -10    7.70    0.76
  -3  -7 -10    3.03    0.52
   3  -7  10    2.82    0.47
   3   7  10    2.49    0.53
  -3  -7 -10    3.29    0.46
  -3   7 -10    3.44    0.55
  -3   7 -10    2.75    0.42
  -4  -7 -10    2.55    0.47
  -4  -7 -10    3.23    0.53
   4   7  10    3.09    0.60
  -4   7 -10    3.08    0.55
   4  -7  10    2.75    0.50
   5   7  10    9.66    0.94
  -5  -7 -10    8.45    0.86
  -5  -7 -10    9.43    0.89
   5  -7  10    9.37    0.92
  -5   7 -10    7.66    0.86
  -6   7 -10    7.15    0.89
   6   7  10    7.47    0.99
  -6  -7 -10    6.83    0.85
   6  -7  10    7.61    0.87
   7  -7  10    0.69    0.42
   7   7  10   -0.05    0.59
  -7   7 -10    1.18    0.44
  -7  -7 -10    1.20    0.42
  -7   8  10    0.75    0.44
   7   8 -10    0.80    0.48
   7  -8 -10    0.19    0.29
   6  -8 -10    0.26    0.33
   6   8 -10    0.82    0.45
  -6   8  10    0.76    0.41
  -6  -8  10    0.31    0.40
   5  -8 -10    7.07    0.82
  -5  -8  10    9.03    0.93
   5   8 -10    9.60    0.89
  -5   8  10    6.01    0.87
  -4  -8  10   59.70    3.73
   4  -8 -10   55.98    3.48
  -4   8  10   54.41    3.76
   4   8 -10   55.03    3.75
   3  -8 -10    7.18    0.73
  -3  -8  10    8.16    0.85
  -3  -8  10    6.20    0.60
   3  -8 -10    7.12    0.71
   3   8 -10    6.64    0.69
  -3   8  10    6.69    0.77
   2   8 -10   19.42    1.47
  -2  -8  10   18.34    1.32
   2  -8 -10   22.38    1.41
  -2  -8  10   20.03    1.53
  -2   8  10   19.83    1.52
   2  -8 -10   21.60    1.50
  -1  -8  10   53.83    3.52
  -1   8  10   53.45    3.61
   1   8 -10   51.60    3.56
  -1  -8  10   54.21    3.25
   1  -8 -10   57.50    3.52
   1  -8 -10   54.97    3.25
   0   8  10    0.85    0.36
   0  -8 -10    1.00    0.37
   0  -8  10    0.99    0.29
   0   8 -10    0.87    0.34
   0  -8  10    0.73    0.35
   0  -8 -10    0.72    0.24
  -1   8 -10    6.52    0.71
  -1  -8 -10    7.82    0.80
   1   8  10    6.46    0.71
   1  -8  10    6.79    0.65
   1  -8  10    7.16    0.73
   2  -8  10    8.27    0.83
  -2  -8 -10   10.14    0.93
  -2   8 -10   10.89    0.95
   2  -8  10   10.48    0.86
   2   8  10    9.34    0.92
  -3   8 -10    0.71    0.37
   3  -8  10    0.52    0.28
  -3  -8 -10    0.32    0.32
  -3  -8 -10    0.21    0.26
   3   8  10    0.49    0.38
  -4  -8 -10    9.36    0.93
   4   8  10    9.63    1.03
  -4   8 -10    9.45    0.94
   4  -8  10    9.16    0.88
  -4  -8 -10    9.79    0.89
   5  -8  10    0.43    0.35
  -5   8 -10    0.09    0.29
  -5  -8 -10    0.37    0.32
   5   8  10    0.22    0.40
  -5  -8 -10    0.13    0.33
  -6  -8 -10    1.86    0.52
  -6  -8 -10    2.26    0.49
   6   8  10    1.28    0.55
   6  -8  10    1.75    0.49
  -6   8 -10    1.16    0.46
   7   8  10   11.78    1.38
   7  -8  10    9.65    1.10
  -7  -8 -10   10.48    1.05
  -7   8 -10   11.14    1.11
   7   9 -10    0.62    0.44
   7  -9 -10   -0.24    0.32
  -7   9  10    0.18    0.43
  -6  -9  10    1.33    0.54
   6   9 -10    1.42    0.52
  -6   9  10    2.12    0.56
   6  -9 -10    1.00    0.44
   5  -9 -10    1.24    0.43
  -5   9  10    1.33    0.49
  -5  -9  10    1.31    0.49
   5   9 -10    2.30    0.54
   4  -9 -10    0.00    0.28
  -4   9  10    0.08    0.36
  -4  -9  10    0.48    0.39
   4   9 -10    0.05    0.32
  -3  -9  10    9.05    0.93
  -3   9  10    8.21    0.93
   3   9 -10    8.99    0.86
  -3  -9  10    9.12    0.73
   3  -9 -10    8.78    0.84
   3  -9 -10    8.52    0.82
  -2  -9  10    0.16    0.20
  -2  -9  10    0.21    0.32
   2   9 -10    0.15    0.26
  -2   9  10   -0.06    0.28
   2  -9 -10    0.09    0.32
   2  -9 -10    0.20    0.25
   1  -9 -10    5.27    0.57
  -1   9  10    4.77    0.71
  -1  -9  10    5.60    0.58
   1  -9 -10    6.28    0.72
   1   9 -10    5.74    0.69
  -1  -9  10    6.33    0.73
   0  -9 -10    7.05    0.74
   0   9  10    5.62    0.73
   0  -9  10    4.77    0.68
   0   9 -10    6.33    0.71
   0  -9  10    5.70    0.61
   1  -9  10    6.81    0.70
   1  -9  10    6.20    0.72
  -1   9 -10    7.14    0.79
   1   9  10    7.30    0.83
  -1  -9 -10    7.04    0.79
  -2   9 -10    1.19    0.44
   2   9  10    0.72    0.39
   2  -9  10    0.45    0.30
  -2  -9 -10    0.66    0.38
   2  -9  10   -0.09    0.30
   3  -9  10    3.34    0.54
  -3  -9 -10    2.99    0.58
  -3   9 -10    3.85    0.60
   3   9  10    3.63    0.66
  -4  -9 -10    6.45    0.71
  -4  -9 -10    7.56    0.84
   4   9  10    7.80    0.90
  -4   9 -10    8.11    0.90
   4  -9  10    5.14    0.73
  -5  -9 -10    2.09    0.48
  -5  -9 -10    2.34    0.54
   5   9  10    1.61    0.59
  -5   9 -10    2.49    0.55
   5  -9  10    2.19    0.54
  -6   9 -10    2.04    0.52
  -6  -9 -10    1.03    0.42
  -6  -9 -10    1.90    0.52
   6   9  10    1.16    0.52
   6  -9  10    1.10    0.47
  -7  -9 -10    0.48    0.37
   7  -9  10    0.10    0.40
   7 -10 -10    0.51    0.47
   7  10 -10    1.90    0.57
  -7  10  10    1.32    0.55
  -7 -10  10    0.32    0.58
  -6 -10  10    1.77    0.61
   6 -10 -10    1.79    0.54
  -6  10  10    1.37    0.52
   6  10 -10    2.30    0.59
   5 -10 -10    0.94    0.41
  -5 -10  10    1.40    0.50
  -5  10  10    1.02    0.48
   5  10 -10    1.48    0.48
   4 -10 -10    3.80    0.60
  -4  10  10    3.13    0.64
  -4 -10  10    1.96    0.61
   4  10 -10    4.60    0.65
   3 -10 -10    2.65    0.51
   3  10 -10    2.34    0.52
   3 -10 -10    3.15    0.51
  -3 -10  10    3.34    0.66
  -3  10  10    2.26    0.52
   2 -10 -10    3.04    0.55
   2 -10 -10    2.39    0.46
  -2 -10  10    3.97    0.62
  -2 -10  10    2.97    0.41
  -2  10  10    2.37    0.54
   2  10 -10    2.09    0.50
  -1 -10  10    6.71    0.64
  -1 -10  10    6.82    0.82
  -1  10  10    6.81    0.87
   1  10 -10    7.23    0.80
   1 -10 -10    5.74    0.76
   1 -10 -10    7.05    0.66
   0 -10  10   32.25    2.28
   0  10  10   30.79    2.33
   0 -10 -10   34.91    2.33
   0  10 -10   31.73    2.32
   0 -10  10   34.60    2.12
   1 -10  10    7.52    0.74
  -1 -10 -10    8.64    0.89
   1 -10  10    6.44    0.77
  -1  10 -10    6.53    0.82
   1  10  10    6.92    0.85
   2 -10  10    4.85    0.62
  -2 -10 -10    4.15    0.68
  -2  10 -10    5.62    0.74
   2  10  10    4.39    0.68
   2 -10  10    4.94    0.62
  -3 -10 -10   -0.09    0.32
  -3  10 -10   -0.03    0.33
   3 -10  10   -0.04    0.26
   3  10  10    0.43    0.41
   4 -10  10    2.16    0.49
  -4  10 -10    2.53    0.56
   4  10  10    1.31    0.52
  -4 -10 -10    2.35    0.55
  -5 -10 -10    1.64    0.52
   5  10  10    1.64    0.57
  -5  10 -10    1.17    0.46
   5 -10  10    1.44    0.48
  -6 -10 -10    0.40    0.46
   6  10  10    0.46    0.44
  -6 -10 -10    0.99    0.40
   6 -10  10    0.13    0.36
  -6  10 -10    0.65    0.41
  -7 -10 -10    0.90    0.44
  -7 -11  10    0.59    0.63
   6  11 -10    0.95    0.53
  -6 -11  10   -0.05    0.49
  -6  11  10    0.38    0.38
   6 -11 -10    0.56    0.49
   5  11 -10    3.35    0.64
  -5  11  10    2.66    0.60
  -5 -11  10    3.18    0.70
   5 -11 -10    4.84    0.70
  -4  11  10    1.34    0.48
   4 -11 -10    1.59    0.49
   4  11 -10    2.17    0.50
  -4 -11  10    1.50    0.53
   3 -11 -10    8.00    0.84
  -3 -11  10    9.01    1.00
   3  11 -10    8.05    0.86
  -3  11  10    7.91    0.86
  -2  11  10    0.69    0.39
   2  11 -10    0.13    0.33
  -2 -11  10    0.27    0.39
   2 -11 -10   -0.26    0.33
   2 -11 -10   -0.20    0.29
  -1  11  10    3.77    0.68
  -1 -11  10    2.80    0.45
   1  11 -10    4.14    0.61
   1 -11 -10    3.80    0.64
  -1 -11  10    3.64    0.64
   0  11  10    2.95    0.61
   0 -11  10    3.30    0.58
   0 -11  10    3.46    0.49
   0 -11 -10    3.37    0.63
   0  11 -10    3.53    0.60
  -1 -11 -10    9.71    0.99
   1  11  10    8.89    0.95
   1 -11  10    8.66    0.90
  -1  11 -10    9.55    0.93
   1 -11  10    9.54    0.84
  -2  11 -10   22.39    1.71
   2  11  10   18.83    1.61
   2 -11  10   21.95    1.56
  -2 -11 -10   23.14    1.72
   2 -11  10   22.37    1.62
  -3  11 -10    4.15    0.68
  -3 -11 -10    4.11    0.70
   3 -11  10    3.54    0.60
   3  11  10    4.19    0.72
  -4 -11 -10    3.07    0.63
  -4  11 -10    2.43    0.58
   4  11  10    1.88    0.59
   4 -11  10    3.11    0.58
  -5 -11 -10    7.04    0.91
   5 -11  10    6.24    0.87
   5  11  10    6.47    0.91
  -5  11 -10    6.08    0.86
  -6  11 -10    8.73    1.15
  -6 -11 -10   10.24    1.13
   6 -11  10    9.57    1.08
   6 -12 -10    0.31    0.49
  -6  12  10    0.88    0.48
   6  12 -10    0.61    0.43
  -6 -12  10   -0.37    0.53
  -5 -12  10    0.63    0.55
   5  12 -10    0.51    0.37
   5 -12 -10   -0.31    0.36
  -5  12  10    0.10    0.35
   4 -12 -10    9.27    1.04
  -4 -12  10   10.97    1.21
  -4  12  10   10.44    1.06
   4  12 -10   12.00    1.08
  -3 -12  10   -0.37    0.36
   3  12 -10    0.15    0.34
   3 -12 -10    0.25    0.32
  -3  12  10    0.45    0.35
   2 -12 -10    1.93    0.50
  -2 -12  10    0.72    0.43
  -2  12  10    1.40    0.47
   2  12 -10    1.83    0.48
   2 -12 -10    1.16    0.42
  -1  12  10    0.41    0.41
   1  12 -10    1.20    0.41
  -1 -12  10    0.46    0.27
   1 -12 -10    0.45    0.39
  -1 -12  10    0.51    0.38
   0  12  10    6.92    0.91
   0  12 -10    7.88    0.88
   0 -12 -10    7.10    0.89
   0 -12  10    6.67    0.71
   0 -12  10    6.91    0.85
   1 -12  10    6.66    0.75
   1 -12  10    7.76    0.88
  -1  12 -10    7.55    0.89
  -1 -12 -10    7.70    0.93
   1  12  10   10.28    1.04
  -2  12 -10    5.69    0.79
  -2 -12 -10    6.16    0.83
   2  12  10    5.57    0.77
   2 -12  10    4.92    0.66
  -3 -12 -10    7.65    0.96
  -3  12 -10    9.12    1.01
   3  12  10    8.58    1.01
   3 -12  10    6.02    0.81
  -4 -12 -10    4.93    0.82
   4  12  10    5.68    0.85
   4 -12  10    4.69    0.73
  -4  12 -10    5.33    0.78
   5 -12  10    0.95    0.55
   5  12  10    2.58    0.65
  -5  12 -10    1.53    0.58
  -5 -12 -10    2.07    0.61
  -6 -12 -10   -0.19    0.55
   5  13 -10    0.90    0.45
  -5  13  10   -0.25    0.32
   5 -13 -10    0.29    0.47
  -5 -13  10   -0.28    0.51
  -4 -13  10   -0.13    0.49
   4 -13 -10    0.27    0.40
  -4  13  10   -0.02    0.37
   4  13 -10    0.76    0.43
   3  13 -10    1.05    0.45
  -3 -13  10    1.91    0.56
   3 -13 -10    1.33    0.46
  -3  13  10    1.45    0.49
  -2  13  10    0.15    0.36
   2  13 -10    0.82    0.35
  -2 -13  10    0.33    0.40
   2 -13 -10   -0.21    0.35
  -1 -13  10    0.19    0.39
   1 -13 -10    0.49    0.44
  -1  13  10    0.83    0.43
   1  13 -10    0.93    0.41
   0  13 -10   -0.18    0.29
   0 -13  10   -0.04    0.35
   0 -13 -10    0.02    0.34
   0  13  10    0.10    0.35
   0 -13  10    0.17    0.26
   1 -13  10    3.01    0.61
   1  13  10    3.79    0.68
   1 -13  10    3.94    0.57
  -1 -13 -10    2.74    0.64
  -1  13 -10    4.12    0.67
   2 -13  10    0.65    0.35
   2  13  10    0.61    0.44
  -2 -13 -10    1.01    0.46
  -2  13 -10    0.34    0.39
  -3 -13 -10    0.07    0.48
   3  13  10    0.26    0.39
  -3  13 -10    1.32    0.46
   3 -13  10    0.53    0.38
  -4  13 -10    1.11    0.56
  -4 -13 -10    2.04    0.66
   4 -13  10    2.15    0.58
   4  13  10    1.05    0.52
  -5 -13 -10    1.30    0.62
   5 -14 -10    1.73    0.66
   4 -14 -10   -0.02    0.46
   4  14 -10    0.60    0.45
  -4  14  10    0.83    0.44
  -4 -14  10    0.30    0.57
  -3 -14  10    0.65    0.44
   3  14 -10    0.58    0.41
  -3  14  10    0.60    0.43
   2 -14 -10    0.78    0.43
  -2  14  10    0.12    0.39
  -2 -14  10    0.54    0.42
   2  14 -10    0.63    0.45
  -1 -14  10    1.51    0.51
   1  14 -10    1.28    0.49
   1 -14 -10    2.25    0.56
  -1  14  10    1.27    0.50
   0 -14 -10    1.52    0.49
   0  14 -10    1.19    0.42
   0 -14  10    0.93    0.47
   0  14  10    0.76    0.44
   1  14  10    4.96    0.78
   1 -14  10    5.14    0.74
   1 -14  10    4.18    0.62
  -1  14 -10    4.95    0.77
  -1 -14 -10    5.38    0.84
   2  14  10    1.46    0.55
  -2 -14 -10    2.14    0.60
   2 -14  10    0.89    0.41
  -2  14 -10    1.76    0.53
  -3 -14 -10    1.02    0.62
   3  14  10    1.29    0.50
  -3  14 -10    1.07    0.58
   3 -14  10    1.55    0.51
   4 -14  10    0.12    0.43
  -4  14 -10   -0.62    0.48
  -4 -14 -10    0.12    0.54
   4  14  10   -0.06    0.42
  -4  15  10    0.72    0.47
   3  15 -10    2.37    0.61
  -3 -15  10    1.69    0.60
  -3  15  10    2.09    0.57
  -2 -15  10    2.19    0.59
  -2  15  10    1.25    0.49
   2  15 -10    1.98    0.55
  -1  15  10    1.92    0.55
   1  15 -10    2.41    0.59
  -1 -15  10    2.47    0.67
   1 -15 -10    3.31    0.68
   0  15  10    4.30    0.82
   0 -15 -10    4.16    0.77
   0  15 -10    4.46    0.73
   0 -15  10    3.19    0.70
   1  15  10    2.43    0.62
  -1  15 -10    2.04    0.59
  -1 -15 -10    2.48    0.62
   1 -15  10    2.04    0.48
   1 -15  10    3.35    0.65
   2  15  10    2.47    0.62
   2 -15  10    1.71    0.52
  -2  15 -10    1.21    0.65
  -2 -15 -10    1.98    0.62
   3  15  10    6.27    0.91
   3 -15  10    6.95    0.88
  -3  16  10    1.04    0.51
  -2  16  10    0.01    0.39
   1  16 -10    1.20    0.53
  -1 -16  10    0.93    0.52
   1 -16 -10    2.46    0.62
  -1  16  10    1.37    0.49
   0  16  10    2.45    0.66
   0 -16  10    1.68    0.57
   0 -16 -10    1.14    0.54
   0  16 -10    2.58    0.63
   1  16  10    3.26    0.67
  -1 -16 -10    2.61    0.69
   2 -16  10    2.56    0.60
   2  16  10    3.08    0.72
   1 -17 -10    0.22    0.55
   0 -17  10    0.61    0.50
  -8   0  11    0.26    0.62
   8   0 -11    0.36    0.33
  -7   0  11    0.66    0.48
   7   0 -11    0.32    0.30
   6   0 -11   -0.04    0.23
  -6   0  11    0.50    0.40
   5   0 -11   -0.13    0.22
  -5   0  11   -0.24    0.31
  -4   0  11    0.11    0.18
  -4   0  11    0.11    0.25
   4   0 -11   -0.23    0.19
  -3   0  11    0.00    0.22
   3   0 -11    0.04    0.19
  -3   0  11    0.06    0.15
   2   0 -11    0.15    0.18
  -2   0  11    0.20    0.17
   2   0 -11    0.18    0.11
  -2   0  11    0.01    0.23
   1   0 -11    0.24    0.13
   1   0 -11   -0.16    0.19
  -1   0  11    0.06    0.15
   0   0  11    0.10    0.13
   0   0 -11   -0.11    0.15
   0   0  11    0.10    0.14
   0   0 -11   -0.28    0.09
   1   0  11   -0.03    0.12
  -1   0 -11    0.04    0.18
  -1   0 -11    0.13    0.15
   1   0  11    0.03    0.15
  -2   0 -11   -0.02    0.18
   2   0  11   -0.12    0.13
   2   0  11   -0.11    0.19
  -2   0 -11    0.01    0.18
  -3   0 -11   -0.07    0.17
   3   0  11    0.01    0.25
  -3   0 -11   -0.16    0.22
   3   0  11   -0.03    0.16
   4   0  11    0.21    0.32
  -4   0 -11    0.32    0.33
  -4   0 -11   -0.17    0.20
   4   0  11    0.36    0.24
   5   0  11   -0.01    0.35
   5   0  11    0.24    0.26
  -5   0 -11    0.50    0.37
  -6   0 -11    0.42    0.39
   6   0  11   -0.70    0.33
   7   0  11    0.29    0.43
  -7   0 -11    0.06    0.43
  -8   0 -11   -0.07    0.42
   8   0  11   -0.19    0.52
   8  -1 -11    0.17    0.33
  -8   1  11    0.55    0.66
  -8  -1  11    1.48    0.70
  -7  -1  11    7.34    0.99
  -7   1  11    4.71    0.76
   7  -1 -11    5.31    0.68
   7   1 -11    4.66    0.67
   6  -1 -11    2.90    0.51
  -6  -1  11    3.86    0.64
   6   1 -11    3.57    0.53
  -6   1  11    3.10    0.61
  -5  -1  11    1.45    0.43
   5  -1 -11    1.11    0.35
  -5  -1  11    0.91    0.28
   5  -1 -11    1.21    0.32
  -5   1  11    1.01    0.43
   5   1 -11    1.45    0.36
   4   1 -11   16.40    1.21
   4  -1 -11   16.23    1.18
  -4  -1  11   17.13    1.13
  -4   1  11   16.13    1.14
  -4  -1  11   15.58    1.14
  -4  -1  11   14.92    1.20
  -4   1  11   15.31    1.21
   3  -1 -11    8.60    0.70
  -3  -1  11    7.96    0.67
   3   1 -11    7.62    0.70
  -3  -1  11    8.30    0.70
   3   1 -11    7.67    0.62
  -3   1  11    7.35    0.66
  -3   1  11    8.56    0.72
   2   1 -11    7.35    0.63
   2  -1 -11    6.40    0.60
   2   1 -11    6.22    0.50
  -2   1  11    7.21    0.59
  -2   1  11    6.30    0.62
  -2  -1  11    6.21    0.56
  -1  -1  11   56.03    3.24
  -1   1  11   51.87    3.50
   1   1 -11   56.37    3.46
   1  -1 -11   56.67    3.46
   1   1 -11   54.22    3.47
  -1   1  11   53.86    3.23
   0  -1 -11    4.27    0.47
   0  -1  11    4.10    0.41
   0   1  11    4.27    0.41
   0   1 -11    3.23    0.37
   0   1 -11    3.68    0.45
   0   1  11    4.24    0.44
   0  -1 -11    3.92    0.34
  -1  -1 -11   12.17    0.91
   1  -1  11   10.73    0.81
   1   1  11   11.73    0.89
  -1  -1 -11   11.51    0.84
   1   1  11   11.79    0.82
  -1   1 -11   11.24    0.86
  -1   1 -11   11.97    0.89
  -2   1 -11    4.53    0.49
  -2  -1 -11    4.80    0.53
  -2   1 -11    5.09    0.52
   2   1  11    4.86    0.46
   2  -1  11    4.68    0.48
   2   1  11    5.18    0.54
  -2  -1 -11    5.48    0.52
   3   1  11    3.44    0.50
   3   1  11    3.41    0.39
  -3  -1 -11    3.18    0.44
  -3   1 -11    2.74    0.40
  -3  -1 -11    3.21    0.48
  -3   1 -11    3.74    0.49
   3  -1  11    3.36    0.42
   3  -1  11    3.08    0.48
  -4   1 -11   27.89    1.80
  -4  -1 -11   24.58    1.79
   4   1  11   27.84    1.72
  -4   1 -11   27.57    1.96
  -4  -1 -11   27.91    1.96
   4  -1  11   27.80    1.74
   4  -1  11   26.81    1.89
   4   1  11   25.05    1.90
   5  -1  11    2.74    0.45
   5  -1  11    2.93    0.55
  -5   1 -11    1.99    0.53
  -5  -1 -11    3.35    0.60
   5   1  11    2.31    0.54
   6   1  11    1.53    0.54
  -6   1 -11    1.81    0.52
  -6  -1 -11    1.55    0.53
   6  -1  11    1.29    0.48
   7  -1  11    9.84    1.03
  -7  -1 -11   10.70    1.12
   7   1  11    9.92    1.17
  -7   1 -11   10.19    1.08
  -8   1 -11    1.80    0.60
   8   1  11    0.02    0.60
  -8  -1 -11    2.24    0.61
   8  -1  11    1.88    0.70
   9  -2 -11    1.76    0.50
  -8   2  11   -0.32    0.54
   8  -2 -11   -0.26    0.30
  -7  -2  11   21.11    1.59
   7  -2 -11   18.00    1.38
   7   2 -11   17.71    1.34
  -7   2  11   15.08    1.46
  -6  -2  11    8.99    0.96
   6   2 -11    8.19    0.81
   6  -2 -11   10.16    0.87
  -6   2  11    8.51    0.92
   5  -2 -11    0.48    0.29
  -5  -2  11    0.37    0.36
  -5   2  11    0.57    0.37
  -5  -2  11    0.57    0.26
   5   2 -11    0.78    0.30
  -5  -2  11    0.15    0.24
   4  -2 -11    6.78    0.65
  -4   2  11    6.92    0.70
   4   2 -11    6.92    0.70
  -4  -2  11    7.75    0.65
  -4  -2  11    7.14    0.71
   3   2 -11   19.07    1.33
  -3   2  11   18.65    1.41
  -3  -2  11   20.04    1.30
  -3  -2  11   20.06    1.38
   3   2 -11   20.69    1.42
  -3   2  11   18.17    1.30
   3  -2 -11   19.08    1.36
   2   2 -11    0.48    0.18
   2   2 -11    0.29    0.22
  -2   2  11    0.24    0.18
  -2  -2  11    0.39    0.20
  -2   2  11    0.22    0.25
   2  -2 -11    0.36    0.21
  -1   2  11   31.99    2.09
   1   2 -11   29.74    2.06
   1  -2 -11   31.34    2.07
  -1   2  11   30.56    1.92
   1   2 -11   31.14    2.05
  -1  -2  11   32.22    1.93
   0   2  11    3.24    0.36
   0   2 -11    3.07    0.37
   0   2 -11    1.94    0.37
   0  -2  11    3.37    0.37
   0  -2 -11    3.15    0.41
   0   2  11    3.27    0.40
   1   2  11    1.68    0.35
  -1  -2 -11    1.76    0.33
  -1  -2 -11    1.71    0.26
  -1   2 -11    1.47    0.30
  -1   2 -11    1.63    0.29
   1   2  11    1.09    0.22
   1  -2  11    1.66    0.28
   2   2  11   15.28    1.05
  -2  -2 -11   16.83    1.16
  -2   2 -11   14.37    1.14
  -2  -2 -11   16.47    1.18
   2   2  11   16.22    1.19
   2  -2  11   15.15    1.07
  -2   2 -11   16.23    1.14
  -3  -2 -11    2.11    0.40
  -3   2 -11    1.77    0.37
   3   2  11    2.29    0.31
  -3  -2 -11    1.84    0.35
   3  -2  11    1.52    0.32
  -3   2 -11    1.92    0.33
   3   2  11    2.46    0.44
  -4  -2 -11    2.41    0.41
  -4   2 -11    2.62    0.38
  -4  -2 -11    2.83    0.53
   4   2  11    2.78    0.55
   4   2  11    2.94    0.39
  -4   2 -11    3.85    0.55
   4  -2  11    2.74    0.42
  -5  -2 -11    9.62    1.02
   5  -2  11    7.70    0.87
   5  -2  11    8.41    0.77
  -5   2 -11    9.15    0.97
   5   2  11    9.28    0.97
   6  -2  11    0.29    0.29
  -6   2 -11    0.20    0.37
   6  -2  11    0.48    0.40
  -6  -2 -11    0.01    0.42
   6   2  11   -0.35    0.35
  -7  -2 -11    3.73    0.73
   7   2  11    2.82    0.66
  -7   2 -11    2.83    0.64
   7  -2  11    2.99    0.65
   8   2  11    7.12    1.17
  -8  -2 -11    9.05    1.15
  -8   2 -11   10.66    1.19
   9  -3 -11    0.25    0.42
  -8   3  11   -0.40    0.55
   8  -3 -11    0.00    0.31
   7  -3 -11    5.90    0.78
  -7   3  11    6.23    0.90
  -7  -3  11    9.01    1.06
   6   3 -11    1.19    0.37
  -6   3  11    0.81    0.44
   6  -3 -11    0.79    0.34
  -6  -3  11    1.76    0.54
  -6  -3  11    0.86    0.39
  -5  -3  11   12.07    0.96
   5  -3 -11   13.96    1.06
  -5  -3  11   13.55    1.11
  -5   3  11   12.35    1.09
  -5  -3  11   12.20    1.03
  -4  -3  11    6.22    0.59
   4   3 -11    6.64    0.64
  -4  -3  11    6.58    0.69
   4  -3 -11    6.41    0.62
  -4   3  11    7.39    0.76
   4  -3 -11    6.89    0.66
  -3  -3  11    0.09    0.19
  -3   3  11    0.12    0.18
   3   3 -11    0.32    0.21
   3  -3 -11    0.40    0.23
  -3   3  11    0.09    0.25
  -2   3  11    8.62    0.67
   2  -3 -11    7.48    0.67
  -2   3  11    6.48    0.68
   2   3 -11    7.53    0.61
   2   3 -11    7.30    0.70
  -2  -3  11    7.79    0.64
   1   3 -11   37.95    2.53
   1  -3 -11   38.78    2.53
  -1  -3  11   38.20    2.35
   1   3 -11   39.20    2.54
  -1   3  11   37.38    2.56
  -1   3  11   41.59    2.37
   0  -3  11   24.30    1.61
   0   3 -11   26.73    1.74
   0   3  11   26.97    1.61
   0   3 -11   24.05    1.73
   0   3  11   25.34    1.75
   0  -3 -11   26.26    1.75
   1   3  11    1.49    0.33
   1  -3  11    1.34    0.26
  -1  -3 -11    0.98    0.28
  -1   3 -11    0.57    0.23
  -1   3 -11    1.12    0.27
  -1  -3 -11    1.26    0.23
   1   3  11    0.97    0.21
   2  -3  11    4.58    0.49
  -2   3 -11    4.65    0.50
  -2   3 -11    4.65    0.53
  -2  -3 -11    4.76    0.54
   2   3  11    5.01    0.60
  -2  -3 -11    4.52    0.52
   2   3  11    4.42    0.42
  -3  -3 -11   21.54    1.64
  -3   3 -11   24.47    1.63
   3   3  11   25.38    1.50
   3  -3  11   23.91    1.57
  -3   3 -11   21.73    1.69
   3   3  11   23.25    1.71
  -3  -3 -11   26.41    1.74
  -4   3 -11   13.06    1.12
   4  -3  11   12.85    1.01
   4   3  11   13.87    1.15
  -4  -3 -11   14.14    1.16
  -4  -3 -11   13.20    1.05
   5  -3  11    8.17    0.86
  -5  -3 -11    7.14    0.73
  -5   3 -11    8.08    0.89
   5   3  11    7.45    0.89
  -5  -3 -11    8.43    0.87
   5  -3  11    6.88    0.73
   6   3  11    2.48    0.60
   6  -3  11    2.32    0.47
  -6  -3 -11    2.42    0.60
  -6   3 -11    2.28    0.56
   7   3  11   -0.07    0.45
  -7   3 -11    0.48    0.38
  -7  -3 -11    0.64    0.46
  -8   3 -11    0.98    0.56
  -8  -3 -11    1.05    0.52
   8   3  11    1.47    0.69
   8  -4 -11    0.19    0.34
   8   4 -11    0.11    0.57
  -8   4  11   -0.50    0.54
  -7   4  11    0.89    0.50
   7  -4 -11    1.50    0.45
  -6  -4  11    3.94    0.70
  -6  -4  11    3.32    0.56
   6  -4 -11    3.40    0.56
  -6  -4  11    3.55    0.56
  -6   4  11    3.37    0.63
   5  -4 -11    0.41    0.27
  -5  -4  11    0.26    0.33
  -5  -4  11    0.50    0.24
  -5  -4  11    0.34    0.38
  -5   4  11    0.66    0.38
   4  -4 -11    1.21    0.36
  -4  -4  11    1.60    0.31
   4   4 -11    1.89    0.40
  -4   4  11    1.44    0.43
  -4  -4  11    1.79    0.44
   4  -4 -11    1.53    0.34
  -3  -4  11    0.61    0.32
   3  -4 -11    0.58    0.26
  -3   4  11    0.41    0.31
   3   4 -11    0.77    0.24
  -3  -4  11    0.06    0.17
  -2   4  11    0.45    0.23
   2   4 -11    0.35    0.20
  -2  -4  11   -0.16    0.23
   2  -4 -11    0.00    0.22
  -2  -4  11    0.19    0.19
  -2   4  11    0.05    0.24
  -1   4  11    4.98    0.51
  -1   4  11    5.60    0.56
   1   4 -11    5.20    0.52
  -1  -4  11    5.60    0.52
   1  -4 -11    5.92    0.61
   0   4 -11    5.84    0.60
   0   4  11    6.36    0.62
   0   4 -11    6.11    0.59
   0  -4  11    6.18    0.55
   0   4  11    7.60    0.57
   0  -4 -11    6.41    0.64
  -1  -4 -11    4.60    0.55
   1  -4  11    4.84    0.49
   1   4  11    4.31    0.42
  -1   4 -11    4.80    0.54
  -1   4 -11    4.79    0.53
   1   4  11    5.31    0.59
   2  -4  11    9.75    0.74
  -2  -4 -11    8.70    0.74
   2   4  11    8.57    0.83
   2   4  11    9.81    0.68
  -2   4 -11    8.54    0.75
  -2   4 -11    8.83    0.77
  -2  -4 -11    8.66    0.79
  -3  -4 -11    7.32    0.70
  -3   4 -11    7.12    0.64
   3   4  11    6.92    0.74
  -3   4 -11    7.02    0.70
   3  -4  11    7.21    0.67
  -3  -4 -11    7.25    0.69
  -4  -4 -11    0.94    0.32
  -4   4 -11    0.84    0.37
   4   4  11    0.68    0.37
   4  -4  11    1.05    0.34
  -4  -4 -11    0.82    0.35
  -5  -4 -11    0.41    0.36
   5   4  11    0.32    0.39
   5  -4  11   -0.22    0.24
  -5   4 -11    0.61    0.34
  -5  -4 -11    0.18    0.28
   6  -4  11    6.43    0.74
  -6   4 -11    6.32    0.84
   6   4  11    5.56    0.84
  -6  -4 -11    7.04    0.91
  -7  -4 -11    0.21    0.36
   7   4  11    0.29    0.49
   7  -4  11   -0.01    0.32
  -7   4 -11    0.36    0.35
  -8  -4 -11    0.13    0.40
  -8   5  11    0.67    0.61
   8  -5 -11    0.80    0.37
   7  -5 -11    0.24    0.31
  -7  -5  11    0.69    0.41
  -7   5  11    0.18    0.45
  -6  -5  11    7.64    0.82
  -6  -5  11    7.20    0.82
  -6   5  11    7.37    0.90
   6  -5 -11    7.50    0.84
  -5   5  11    4.95    0.70
   5   5 -11    4.79    0.67
  -5  -5  11    5.21    0.55
   5  -5 -11    4.87    0.64
  -5  -5  11    5.01    0.67
   4   5 -11    2.52    0.47
  -4  -5  11    3.36    0.53
   4  -5 -11    2.59    0.46
   4  -5 -11    2.91    0.43
  -4  -5  11    2.82    0.39
  -4   5  11    1.86    0.49
  -3  -5  11    7.71    0.76
   3   5 -11    8.65    0.70
   3  -5 -11    8.07    0.73
  -3  -5  11    7.42    0.65
   3  -5 -11    7.50    0.72
  -3   5  11    7.28    0.75
  -2  -5  11   12.14    1.00
   2  -5 -11   13.43    0.98
  -2   5  11   11.33    0.96
   2   5 -11   11.46    0.90
  -2  -5  11   11.96    0.87
  -2   5  11   10.83    0.88
   1   5 -11    2.18    0.36
  -1   5  11    2.28    0.43
   1  -5 -11    1.65    0.37
  -1  -5  11    2.10    0.33
  -1  -5  11    1.77    0.39
  -1   5  11    2.24    0.34
   0  -5 -11   20.67    1.36
   0   5 -11   17.41    1.30
   0  -5  11   16.88    1.21
   0   5  11   17.08    1.32
   0   5  11   18.12    1.19
  -1   5 -11   14.86    1.12
   1   5  11   14.85    0.99
   1  -5  11   15.42    1.05
  -1  -5 -11   17.45    1.18
  -1   5 -11   14.54    1.10
   1   5  11   11.74    1.08
   2  -5  11   12.58    0.89
  -2  -5 -11   11.26    0.87
   2   5  11   12.01    0.99
  -2  -5 -11   13.38    0.97
  -2   5 -11   10.74    0.89
  -2   5 -11    9.65    0.92
   2   5  11   10.33    0.77
  -3  -5 -11   24.65    1.75
   3  -5  11   24.37    1.65
   3   5  11   23.11    1.78
  -3   5 -11   25.31    1.69
  -3  -5 -11   25.41    1.76
  -3   5 -11   24.91    1.80
   4   5  11    0.06    0.34
  -4  -5 -11    0.26    0.28
  -4  -5 -11   -0.08    0.26
  -4   5 -11    0.12    0.26
   4  -5  11   -0.05    0.24
   5  -5  11    7.66    0.79
   5   5  11    8.04    0.93
  -5   5 -11    7.71    0.88
  -5  -5 -11    7.19    0.87
  -5  -5 -11    6.91    0.77
  -6  -5 -11   15.80    1.36
   6  -5  11   15.02    1.22
   6   5  11   15.48    1.35
  -6   5 -11   14.63    1.33
   7   5  11    3.33    0.80
  -7   5 -11    1.79    0.56
  -7  -5 -11    2.12    0.60
   7  -5  11    2.59    0.54
  -8  -5 -11    2.71    0.64
   8  -6 -11    0.50    0.38
   7  -6 -11    1.70    0.46
  -7  -6  11    1.42    0.47
  -7   6  11    0.79    0.52
   6   6 -11    3.41    0.63
   6  -6 -11    3.12    0.58
  -6   6  11    3.32    0.65
  -6  -6  11    2.95    0.58
  -5  -6  11   -0.10    0.31
  -5  -6  11    0.32    0.21
  -5   6  11    0.18    0.37
   5  -6 -11    0.00    0.28
   5   6 -11    0.55    0.39
   4   6 -11   24.13    1.73
  -4   6  11   22.44    1.76
   4  -6 -11   23.07    1.66
  -4  -6  11   25.55    1.77
  -4  -6  11   24.06    1.55
   3   6 -11    7.72    0.68
   3  -6 -11    6.37    0.69
  -3  -6  11    7.93    0.79
  -3   6  11    6.96    0.75
  -3  -6  11    7.39    0.64
   3  -6 -11    7.38    0.71
   2  -6 -11    1.03    0.33
   2  -6 -11    0.62    0.25
  -2  -6  11    0.50    0.23
  -2   6  11    0.71    0.32
   2   6 -11    0.74    0.26
  -2  -6  11    0.54    0.33
   1   6 -11   17.79    1.31
  -1  -6  11   16.46    1.21
   1  -6 -11   18.48    1.34
  -1  -6  11   18.47    1.36
  -1   6  11   16.89    1.35
  -1   6  11   19.76    1.24
   0   6 -11   22.45    1.64
   0  -6  11   22.60    1.64
   0  -6 -11   23.27    1.65
   0   6  11   22.58    1.67
   0  -6  11   24.61    1.53
   0   6  11   23.35    1.49
   1   6  11    8.79    0.65
   1  -6  11    9.83    0.73
  -1   6 -11    7.28    0.73
   1   6  11    6.88    0.73
  -1  -6 -11    9.21    0.80
  -2   6 -11   24.57    1.62
  -2   6 -11   20.54    1.67
   2   6  11   23.15    1.71
   2  -6  11   23.57    1.56
  -2  -6 -11   23.93    1.68
  -3  -6 -11    1.69    0.41
   3   6  11    1.21    0.43
   3  -6  11    1.39    0.36
  -3   6 -11    2.01    0.37
  -3   6 -11    0.96    0.37
  -3  -6 -11    1.98    0.36
   4   6  11    6.15    0.79
   4  -6  11    5.75    0.66
  -4   6 -11    5.68    0.72
  -4  -6 -11    5.62    0.67
  -4  -6 -11    5.58    0.67
  -5  -6 -11   21.52    1.64
   5  -6  11   21.09    1.58
   5   6  11   23.15    1.72
  -5  -6 -11   22.36    1.70
  -5   6 -11   22.36    1.74
   6   6  11    2.96    0.66
  -6  -6 -11    2.54    0.55
   6  -6  11    1.45    0.46
  -6   6 -11    2.49    0.58
   7  -6  11    2.36    0.54
   7   6  11    2.47    0.74
  -7  -6 -11    3.05    0.62
  -7   6 -11    2.55    0.63
   8  -6  11   10.31    1.10
   7   7 -11    0.55    0.44
  -7   7  11    0.70    0.45
   7  -7 -11    1.42    0.44
   6   7 -11    7.39    0.95
  -6  -7  11    9.22    0.92
   6  -7 -11    6.56    0.83
  -6   7  11    7.21    0.94
  -5   7  11    0.50    0.39
   5   7 -11    0.76    0.40
   5  -7 -11    0.44    0.33
  -5  -7  11    0.69    0.40
  -4   7  11    5.32    0.74
  -4  -7  11    5.09    0.72
  -4  -7  11    4.71    0.54
   4  -7 -11    5.56    0.66
   4   7 -11    6.73    0.68
  -3  -7  11    4.33    0.64
   3   7 -11    3.85    0.54
   3  -7 -11    3.86    0.55
  -3   7  11    3.36    0.58
   3  -7 -11    3.62    0.53
  -3  -7  11    4.73    0.50
   2   7 -11    2.46    0.41
   2  -7 -11    3.71    0.50
  -2  -7  11    2.57    0.51
   2  -7 -11    2.44    0.39
  -2  -7  11    2.29    0.37
  -2   7  11    2.31    0.47
  -1  -7  11   16.25    1.08
   1   7 -11   13.76    1.13
  -1  -7  11   15.26    1.19
   1  -7 -11   14.13    1.05
   1  -7 -11   16.31    1.20
  -1   7  11   13.55    1.18
   0   7 -11    0.04    0.25
   0  -7  11   -0.18    0.17
   0   7  11    0.01    0.25
   0  -7 -11   -0.02    0.25
   0  -7  11   -0.47    0.23
   1  -7  11    1.69    0.34
  -1   7 -11    1.52    0.39
  -1  -7 -11    2.14    0.44
   1   7  11    1.43    0.41
   1  -7  11    1.12    0.36
   1   7  11    1.77    0.28
  -2   7 -11   11.52    1.01
   2  -7  11   11.95    0.96
   2   7  11   12.65    1.07
  -2  -7 -11   12.44    1.05
  -2   7 -11   11.34    0.97
  -3   7 -11    0.17    0.20
  -3   7 -11    0.45    0.33
   3   7  11    0.57    0.38
  -3  -7 -11    0.71    0.34
   3  -7  11    0.29    0.26
  -4  -7 -11    1.12    0.35
  -4   7 -11    1.46    0.45
  -4  -7 -11    1.06    0.39
   4  -7  11    1.47    0.39
   4   7  11    1.57    0.50
  -5  -7 -11    0.98    0.41
   5  -7  11    0.71    0.36
  -5  -7 -11    0.93    0.37
  -5   7 -11    0.59    0.35
   5   7  11    1.12    0.46
   6   7  11    3.02    0.68
  -6   7 -11    2.05    0.52
  -6  -7 -11    1.62    0.50
   6  -7  11    2.90    0.58
  -7  -7 -11    5.15    0.72
   7   7  11    2.88    0.87
  -7   7 -11    4.25    0.75
   7  -7  11    4.86    0.71
   8   8 -11    1.88    0.61
   7   8 -11    1.30    0.56
  -7   8  11    1.05    0.53
   7  -8 -11    0.60    0.34
   6  -8 -11    0.23    0.35
  -6   8  11    1.21    0.48
   6   8 -11    2.10    0.52
  -6  -8  11    0.45    0.44
   5   8 -11    0.64    0.40
   5  -8 -11    0.52    0.33
  -5  -8  11    0.23    0.42
  -5   8  11    1.22    0.48
  -4  -8  11    5.20    0.77
   4  -8 -11    5.75    0.71
  -4   8  11    5.05    0.76
   4   8 -11    6.81    0.74
  -3  -8  11    0.09    0.18
   3   8 -11    0.54    0.33
  -3  -8  11    0.23    0.35
   3  -8 -11    0.53    0.30
  -3   8  11   -0.08    0.29
   3  -8 -11    0.96    0.35
   2   8 -11    2.63    0.48
   2  -8 -11    3.15    0.53
   2  -8 -11    2.63    0.44
  -2   8  11    3.01    0.54
  -2  -8  11    3.06    0.42
  -2  -8  11    3.94    0.59
  -1  -8  11   -0.38    0.31
  -1   8  11    0.63    0.34
   1  -8 -11    0.05    0.30
   1  -8 -11    0.74    0.26
   1   8 -11    0.38    0.28
  -1  -8  11    0.53    0.25
   0  -8 -11   16.05    1.20
   0  -8  11   13.59    1.15
   0   8  11   13.21    1.16
   0   8 -11   13.68    1.14
   0  -8 -11   14.20    1.01
   0  -8  11   16.13    1.09
  -1  -8 -11    6.78    0.77
   1   8  11    6.78    0.78
  -1   8 -11    7.04    0.77
   1  -8  11    6.22    0.71
   1  -8  11    6.20    0.66
  -2  -8 -11    4.24    0.64
  -2   8 -11    3.95    0.61
   2   8  11    6.11    0.71
   2  -8  11    3.14    0.51
   3   8  11    4.02    0.65
   3  -8  11    3.03    0.51
  -3  -8 -11    3.34    0.57
  -3   8 -11    3.58    0.59
   4  -8  11    3.98    0.59
  -4   8 -11    4.46    0.68
   4   8  11    4.65    0.69
  -4  -8 -11    3.64    0.61
   5  -8  11    1.70    0.47
  -5  -8 -11    1.02    0.39
  -5  -8 -11    1.21    0.46
   5   8  11    0.24    0.41
  -5   8 -11    1.29    0.44
  -6  -8 -11    0.78    0.41
  -6  -8 -11    1.16    0.43
   6  -8  11    0.32    0.37
   6   8  11    0.29    0.51
  -6   8 -11    0.65    0.39
   7  -8  11    1.46    0.49
  -7  -8 -11    1.03    0.46
   7  -9 -11   -0.38    0.38
   7   9 -11    0.66    0.51
  -7   9  11   -0.12    0.49
  -6   9  11    3.16    0.63
   6   9 -11    2.89    0.65
   6  -9 -11    2.11    0.55
  -6  -9  11    3.17    0.69
   5  -9 -11    0.27    0.30
   5   9 -11    0.16    0.34
  -5   9  11   -0.25    0.34
  -5  -9  11    0.02    0.38
  -4   9  11   11.85    1.20
   4   9 -11   15.43    1.21
  -4  -9  11   14.37    1.25
   4  -9 -11   14.54    1.17
   3   9 -11   12.75    1.11
  -3  -9  11   11.79    0.95
   3  -9 -11   12.81    1.12
  -3  -9  11   14.47    1.22
  -3   9  11   13.25    1.15
   3  -9 -11   13.71    1.08
   2   9 -11    4.00    0.57
  -2  -9  11    3.09    0.43
   2  -9 -11    3.45    0.58
  -2   9  11    2.23    0.53
   2  -9 -11    3.19    0.49
  -2  -9  11    3.25    0.59
  -1  -9  11    3.51    0.49
  -1  -9  11    3.76    0.63
   1  -9 -11    4.16    0.64
   1  -9 -11    4.60    0.53
  -1   9  11    3.90    0.64
   1   9 -11    5.03    0.61
   0   9  11    0.79    0.42
   0  -9 -11    1.55    0.47
   0  -9  11    1.99    0.46
   0   9 -11    1.91    0.43
   0  -9  11    1.67    0.37
   1  -9  11   14.05    1.04
  -1  -9 -11   12.83    1.14
   1   9  11   13.21    1.14
   1  -9  11   12.23    1.07
  -1   9 -11   11.96    1.10
  -2   9 -11    0.10    0.34
   2   9  11   -0.16    0.32
  -2  -9 -11    0.52    0.35
   2  -9  11   -0.01    0.28
   2  -9  11    0.22    0.25
  -3  -9 -11    3.11    0.57
  -3   9 -11    2.52    0.57
   3  -9  11    3.67    0.55
   3   9  11    2.24    0.59
  -4  -9 -11    3.97    0.64
   4  -9  11    3.25    0.57
  -4   9 -11    4.09    0.66
   4   9  11    4.67    0.73
   5   9  11    0.07    0.39
  -5  -9 -11    0.05    0.33
   5  -9  11   -0.04    0.34
  -5   9 -11    0.04    0.29
   6   9  11    2.22    0.65
   6  -9  11    3.01    0.62
  -6   9 -11    3.48    0.67
  -6  -9 -11    2.94    0.63
  -7  -9 -11    2.79    0.62
   7  10 -11    1.94    0.58
  -7 -10  11    1.42    0.67
   6  10 -11    1.46    0.50
  -6  10  11    0.58    0.42
   6 -10 -11    0.62    0.45
  -6 -10  11    1.10    0.57
  -5 -10  11    0.55    0.42
   5 -10 -11   -0.18    0.31
  -5  10  11   -0.60    0.31
   5  10 -11    0.42    0.35
   4 -10 -11    7.30    0.84
   4  10 -11    7.74    0.83
  -4 -10  11    7.78    0.96
  -4  10  11    9.08    0.92
  -3 -10  11   10.92    1.12
   3 -10 -11   13.24    1.09
   3  10 -11   11.83    1.06
   3 -10 -11   12.71    1.04
  -3  10  11   11.10    1.08
  -2 -10  11   13.10    0.99
  -2 -10  11   14.14    1.20
  -2  10  11   10.89    1.12
   2 -10 -11   15.37    1.09
   2 -10 -11   13.88    1.16
   2  10 -11   11.74    1.09
   1 -10 -11   10.81    0.87
  -1 -10  11   10.15    0.99
  -1 -10  11   10.55    0.84
   1 -10 -11   10.93    0.99
   1  10 -11    8.19    0.89
  -1  10  11   10.08    1.00
   0  10  11   26.33    1.96
   0 -10 -11   27.29    1.95
   0 -10  11   27.05    1.77
   0 -10  11   25.40    1.91
   0  10 -11   25.06    1.91
  -1  10 -11    1.11    0.43
   1 -10  11    1.02    0.36
   1  10  11    1.03    0.46
  -1 -10 -11    0.80    0.41
   1 -10  11    0.59    0.36
  -2 -10 -11   13.85    1.19
   2 -10  11   13.17    1.06
  -2  10 -11   13.03    1.17
   2 -10  11   12.84    1.08
   2  10  11   11.38    1.08
  -3  10 -11    2.59    0.56
  -3 -10 -11    2.71    0.58
   3  10  11    2.54    0.60
   3 -10  11    2.65    0.51
  -4 -10 -11    0.58    0.39
   4  10  11    0.25    0.48
   4 -10  11    0.59    0.38
  -4  10 -11    0.49    0.37
  -5 -10 -11    2.99    0.63
  -5  10 -11    2.28    0.57
   5  10  11    4.27    0.75
   5 -10  11    2.65    0.56
  -6  10 -11    4.11    0.73
  -6 -10 -11    4.32    0.76
   6 -10  11    4.29    0.73
   6  10  11    4.25    0.80
  -7 -11  11   -0.02    0.64
  -6 -11  11   -0.63    0.50
   6  11 -11    0.34    0.40
  -6  11  11   -0.04    0.36
   6 -11 -11    0.11    0.44
   5  11 -11    0.87    0.42
   5 -11 -11    0.08    0.37
  -5  11  11    0.15    0.41
  -5 -11  11   -0.77    0.41
  -4 -11  11    4.41    0.77
   4 -11 -11    4.96    0.70
   4  11 -11    4.72    0.71
  -4  11  11    4.58    0.74
  -3  11  11    6.12    0.85
  -3 -11  11    7.03    0.89
   3 -11 -11    7.36    0.78
   3  11 -11    5.95    0.79
   2 -11 -11    1.29    0.47
   2  11 -11    2.51    0.51
  -2  11  11    2.30    0.53
   2 -11 -11    2.35    0.47
  -2 -11  11    2.74    0.61
   1 -11 -11    2.94    0.60
  -1 -11  11    2.68    0.57
   1  11 -11    3.95    0.60
  -1 -11  11    2.50    0.43
  -1  11  11    2.91    0.63
   0 -11  11    0.40    0.37
   0 -11  11    0.17    0.27
   0  11  11   -0.12    0.34
   0 -11 -11    0.58    0.37
   0  11 -11    0.51    0.34
   1 -11  11    1.54    0.40
   1  11  11    1.07    0.45
  -1  11 -11    1.14    0.45
   1 -11  11    1.20    0.44
  -1 -11 -11    1.31    0.50
  -2 -11 -11   -0.04    0.33
   2 -11  11    0.48    0.31
   2  11  11    0.28    0.31
   2 -11  11    0.01    0.32
  -2  11 -11    0.15    0.37
   3 -11  11    1.08    0.41
  -3  11 -11    2.28    0.52
   3  11  11    2.03    0.56
  -3 -11 -11    1.73    0.51
   4 -11  11    0.36    0.38
   4  11  11   -0.22    0.34
  -4  11 -11   -0.04    0.34
  -4 -11 -11   -0.14    0.37
   5  11  11    0.58    0.46
  -5  11 -11    0.82    0.44
   5 -11  11    0.04    0.34
  -5 -11 -11    0.24    0.47
  -6 -11 -11    0.84    0.53
  -6 -12  11    0.65    0.64
   6  12 -11    0.53    0.44
  -5 -12  11    2.73    0.76
   5  12 -11    3.61    0.68
  -5  12  11    3.19    0.65
   5 -12 -11    3.81    0.70
   4  12 -11    0.62    0.43
  -4  12  11    0.33    0.41
  -4 -12  11    0.15    0.49
   4 -12 -11   -0.12    0.38
  -3 -12  11    0.30    0.42
   3 -12 -11    0.76    0.39
   3  12 -11    0.75    0.42
  -3  12  11    2.27    0.54
   2 -12 -11    0.08    0.37
   2  12 -11   -0.04    0.32
  -2 -12  11   -0.06    0.35
  -2  12  11   -0.33    0.28
  -1  12  11    2.19    0.54
  -1 -12  11    1.69    0.50
   1  12 -11    1.38    0.44
   1 -12 -11    1.95    0.53
  -1 -12  11    0.95    0.31
   0  12  11    0.61    0.41
   0 -12 -11    0.62    0.43
   0 -12  11    0.85    0.44
   0 -12  11    0.50    0.29
   0  12 -11    1.05    0.42
  -1 -12 -11    1.00    0.44
   1 -12  11    0.21    0.27
   1  12  11    0.02    0.36
  -1  12 -11    0.05    0.31
   1 -12  11    0.26    0.39
   2  12  11    3.84    0.69
  -2  12 -11    4.18    0.70
   2 -12  11    3.59    0.59
  -2 -12 -11    4.72    0.74
  -3 -12 -11    3.59    0.71
   3 -12  11    3.93    0.61
  -3  12 -11    3.08    0.64
   3  12  11    3.09    0.62
  -4 -12 -11    0.84    0.48
  -4  12 -11    0.40    0.35
   4 -12  11    0.74    0.43
   4  12  11    0.86    0.46
  -5  12 -11    1.78    0.54
   5  12  11    1.76    0.60
   5 -12  11    2.83    0.68
  -5 -12 -11    1.43    0.63
  -5  13  11    2.26    0.57
  -5 -13  11    1.56    0.70
   5 -13 -11    2.03    0.66
   5  13 -11    2.73    0.63
  -4 -13  11    0.80    0.57
   4  13 -11    1.19    0.47
  -4  13  11    0.99    0.50
   4 -13 -11    0.68    0.49
   3 -13 -11    1.68    0.50
  -3 -13  11    2.22    0.55
  -3  13  11    1.97    0.54
   3  13 -11    3.14    0.62
  -2  13  11    0.31    0.35
  -2 -13  11    0.44    0.43
   2 -13 -11    0.84    0.43
   2  13 -11    0.12    0.37
   1  13 -11    1.06    0.43
  -1 -13  11    0.19    0.36
  -1  13  11    0.52    0.43
   1 -13 -11    0.97    0.44
   0 -13  11    1.16    0.37
   0 -13 -11    2.24    0.54
   0  13  11    1.19    0.49
   0 -13  11    1.41    0.46
   0  13 -11    0.12    0.38
  -1  13 -11    5.24    0.80
  -1 -13 -11    7.77    0.94
   1 -13  11    4.65    0.76
   1  13  11    7.20    0.91
   1 -13  11    5.44    0.68
  -2  13 -11    1.73    0.50
  -2 -13 -11    0.78    0.46
   2  13  11    0.99    0.48
   2 -13  11    0.97    0.38
  -3  13 -11    4.77    0.76
   3 -13  11    3.36    0.63
   3  13  11    4.64    0.71
  -3 -13 -11    3.30    0.75
  -4 -13 -11   -0.31    0.46
   4 -13  11   -0.45    0.35
   4  13  11    0.24    0.42
  -4  13 -11    1.02    0.46
   4  14 -11    4.35    0.73
  -4  14  11    4.61    0.76
  -4 -14  11    3.62    0.88
   4 -14 -11    3.56    0.75
  -3 -14  11    1.63    0.58
  -3  14  11    1.34    0.52
   3  14 -11    2.13    0.56
   2  14 -11    0.36    0.38
   2 -14 -11   -0.79    0.35
  -2 -14  11    0.47    0.41
  -2  14  11    0.04    0.33
  -1 -14  11    0.79    0.47
   1  14 -11    1.42    0.45
  -1  14  11    1.29    0.47
   1 -14 -11    1.79    0.57
   0  14 -11    2.53    0.58
   0  14  11    3.28    0.67
   0 -14 -11    3.36    0.69
   0 -14  11    2.44    0.58
   1 -14  11    1.51    0.53
   1 -14  11    2.24    0.47
  -1  14 -11    2.48    0.58
   1  14  11    1.38    0.53
  -1 -14 -11    0.90    0.50
   2 -14  11    4.69    0.74
  -2  14 -11    6.40    0.89
  -2 -14 -11    5.60    0.90
   2  14  11    6.36    0.90
   3  14  11    0.31    0.38
  -3  14 -11    0.74    0.48
  -3 -14 -11    0.22    0.56
   3 -14  11    0.04    0.40
  -3  15  11    0.41    0.42
   3  15 -11    0.15    0.42
   2  15 -11    0.85    0.44
  -2 -15  11    0.12    0.42
  -2  15  11    0.83    0.44
   1  15 -11    0.46    0.40
   1 -15 -11    0.12    0.43
  -1 -15  11    0.75    0.49
  -1  15  11    0.92    0.41
   0  15  11    0.92    0.51
   0 -15 -11    1.35    0.57
   0  15 -11    1.95    0.50
   0 -15  11    1.14    0.51
   1 -15  11    0.24    0.35
   1  15  11    0.23    0.38
  -1  15 -11    0.60    0.46
  -1 -15 -11    0.99    0.56
   1 -15  11    0.81    0.48
  -2  15 -11    0.76    0.46
  -2 -15 -11    0.32    0.51
   2  15  11    0.37    0.45
   2 -15  11    0.49    0.41
   3 -15  11    0.53    0.47
  -2  16  11    0.18    0.44
   1 -16 -11    1.51    0.53
  -1 -16  11    1.52    0.61
  -1  16  11    0.69    0.48
   0  16  11    0.48    0.46
   0 -16 -11    0.38    0.46
   0 -16  11    0.02    0.43
   1  16  11    0.45    0.45
   2 -16  11    0.38    0.46
  -8   0  12    0.21    0.69
   8   0 -12    1.60    0.47
   7   0 -12   30.47    2.16
  -7   0  12   32.77    2.39
   6   0 -12   22.01    1.55
  -6   0  12   20.69    1.64
  -5   0  12    0.42    0.37
   5   0 -12    0.16    0.23
   4   0 -12    6.94    0.67
  -4   0  12    6.64    0.68
  -4   0  12    6.62    0.63
  -3   0  12   31.03    1.92
   3   0 -12   31.49    2.04
  -3   0  12   28.60    2.05
   2   0 -12   17.08    1.22
  -2   0  12   16.79    1.22
  -2   0  12   16.44    1.15
  -1   0  12   35.03    2.13
   1   0 -12   33.87    2.27
   0   0  12    0.10    0.15
   0   0 -12    0.49    0.16
   0   0  12    0.26    0.16
   0   0 -12    0.17    0.21
  -1   0 -12   57.65    3.53
   1   0  12   54.70    3.28
  -1   0 -12   58.35    3.57
   1   0  12   52.22    3.54
  -2   0 -12   38.02    2.44
  -2   0 -12   36.47    2.48
   2   0  12   38.17    2.48
   2   0  12   36.73    2.28
  -3   0 -12   81.46    5.04
   3   0  12   79.20    5.19
  -3   0 -12   82.88    5.25
   3   0  12   81.52    4.74
   4   0  12    3.31    0.45
  -4   0 -12    3.10    0.57
  -4   0 -12    3.66    0.47
   4   0  12    3.59    0.57
  -5   0 -12    8.54    0.92
   5   0  12    7.30    0.70
   5   0  12    8.03    0.88
   6   0  12    6.34    0.84
  -6   0 -12    7.38    0.94
  -7   0 -12    4.26    0.76
   7   0  12    3.13    0.70
   8   0  12   -0.17    0.67
  -8   0 -12    1.01    0.60
  -8  -1  12    0.51    0.72
   8  -1 -12    0.24    0.33
  -8   1  12   -0.50    0.60
  -7  -1  12    4.13    0.79
  -7   1  12    2.60    0.62
   7   1 -12    3.40    0.56
   7  -1 -12    3.01    0.56
   6  -1 -12    3.10    0.52
  -6  -1  12    2.96    0.58
  -6   1  12    3.02    0.59
   6   1 -12    1.68    0.43
  -5  -1  12    0.15    0.22
   5  -1 -12   -0.21    0.21
  -5  -1  12    0.96    0.40
   5  -1 -12    0.44    0.23
   5   1 -12    0.57    0.27
  -5   1  12    0.17    0.36
   4  -1 -12    1.01    0.32
  -4  -1  12    1.71    0.41
   4   1 -12    2.09    0.40
  -4   1  12    1.86    0.35
  -4   1  12    2.15    0.42
  -4  -1  12    1.71    0.33
   3   1 -12    0.55    0.26
   3  -1 -12    0.23    0.22
  -3   1  12    0.26    0.19
  -3  -1  12    0.45    0.27
  -3  -1  12    0.43    0.21
  -3   1  12    0.62    0.28
  -2   1  12    0.07    0.26
   2   1 -12    0.64    0.18
   2   1 -12    0.52    0.25
  -2  -1  12    0.33    0.18
  -2   1  12    0.56    0.22
   2  -1 -12    0.32    0.22
  -1  -1  12   41.03    2.47
   1   1 -12   41.92    2.65
   1   1 -12   40.76    2.61
  -1   1  12   42.16    2.47
  -1   1  12   37.92    2.64
   1  -1 -12   40.47    2.64
   0   1 -12    5.10    0.57
   0  -1 -12    5.44    0.58
   0   1 -12    5.62    0.49
   0   1  12    5.63    0.52
   0  -1  12    5.99    0.52
   0   1  12    5.38    0.50
   1   1  12    0.99    0.22
  -1  -1 -12    0.93    0.30
  -1   1 -12    1.43    0.26
   1  -1  12    1.04    0.24
  -1   1 -12    1.29    0.29
  -1  -1 -12    0.69    0.24
  -2  -1 -12   16.81    1.18
  -2  -1 -12   14.70    1.16
  -2   1 -12   15.22    1.15
  -2   1 -12   16.07    1.17
   2   1  12   16.55    1.20
   2  -1  12   15.65    1.09
   2   1  12   14.71    1.06
   3   1  12    2.41    0.36
   3  -1  12    2.09    0.42
  -3   1 -12    2.03    0.38
   3  -1  12    1.57    0.33
  -3   1 -12    2.60    0.42
  -3  -1 -12    3.58    0.49
  -3  -1 -12    3.55    0.46
  -4   1 -12   21.35    1.64
   4  -1  12   21.32    1.46
  -4  -1 -12   21.99    1.53
   4  -1  12   20.73    1.58
   4   1  12   20.71    1.61
  -4   1 -12   22.31    1.52
   4   1  12   23.86    1.46
  -4  -1 -12   21.34    1.64
   5   1  12   17.07    1.41
   5  -1  12   18.02    1.39
  -5  -1 -12   16.45    1.44
   5  -1  12   19.09    1.28
  -5   1 -12   17.59    1.44
   6  -1  12    3.49    0.67
   6   1  12    4.18    0.69
  -6  -1 -12    5.68    0.80
  -6   1 -12    4.76    0.72
   7   1  12    8.39    1.06
   7  -1  12    9.32    1.10
  -7  -1 -12    9.74    1.17
  -7   1 -12    9.81    1.14
  -8  -1 -12    4.37    0.81
   8  -1  12    3.38    0.86
   8   1  12    3.17    0.84
  -8   1 -12    3.53    0.78
   9  -2 -12    0.17    0.33
   8  -2 -12    1.18    0.40
  -8  -2  12   -0.86    0.63
  -8   2  12    0.01    0.63
  -7  -2  12    3.50    0.75
   7  -2 -12    3.37    0.58
   7   2 -12    2.94    0.53
  -7   2  12    2.99    0.67
  -6   2  12    5.97    0.81
   6  -2 -12    6.42    0.74
  -6  -2  12    7.28    0.90
   6   2 -12    5.43    0.69
  -5   2  12    1.61    0.45
   5   2 -12    3.10    0.47
   5  -2 -12    2.35    0.47
  -5  -2  12    2.10    0.50
  -5  -2  12    2.30    0.39
  -4   2  12    3.02    0.53
   4  -2 -12    3.50    0.47
  -4  -2  12    4.81    0.58
  -4   2  12    2.49    0.43
   4   2 -12    4.17    0.54
  -4  -2  12    4.27    0.49
   3   2 -12    2.30    0.30
  -3   2  12    1.83    0.33
  -3  -2  12    1.98    0.34
  -3   2  12    1.33    0.38
   3  -2 -12    1.41    0.33
   3   2 -12    2.07    0.39
  -2   2  12   23.07    1.59
   2  -2 -12   23.38    1.57
  -2   2  12   22.75    1.48
   2   2 -12   21.50    1.51
  -2  -2  12   21.45    1.46
   2   2 -12   23.60    1.60
  -1   2  12    7.24    0.62
  -1  -2  12    6.52    0.59
   1   2 -12    6.70    0.67
  -1   2  12    7.69    0.65
   1  -2 -12    7.26    0.69
   1   2 -12    7.36    0.61
   0   2  12   13.37    0.94
   0   2 -12   13.58    1.05
   0   2 -12   13.81    0.99
   0   2  12   12.93    1.01
   0  -2 -12   13.42    1.03
   0  -2  12   14.34    0.97
   1   2  12   14.99    1.14
   1   2  12   16.07    1.05
   1  -2  12   15.31    1.08
  -1   2 -12   14.62    1.13
  -1   2 -12   16.00    1.16
  -1  -2 -12   17.16    1.11
  -1  -2 -12   16.13    1.18
   2  -2  12    1.20    0.27
  -2  -2 -12    1.45    0.33
   2   2  12    1.41    0.26
  -2  -2 -12    1.62    0.31
  -2   2 -12    1.02    0.30
  -2   2 -12    1.04    0.28
   2   2  12    1.85    0.40
  -3  -2 -12   12.95    1.00
  -3  -2 -12   13.28    1.02
   3   2  12   12.55    1.04
   3  -2  12   12.51    0.93
  -3   2 -12   12.61    0.96
  -3   2 -12   10.34    0.98
   3   2  12   12.31    0.89
  -4  -2 -12    2.03    0.38
  -4   2 -12    2.17    0.36
  -4   2 -12    2.12    0.45
  -4  -2 -12    2.53    0.50
   4  -2  12    1.84    0.37
   4   2  12    1.67    0.46
   4  -2  12    1.86    0.42
   5  -2  12    0.21    0.26
   5   2  12    0.25    0.35
  -5  -2 -12   -0.40    0.31
   5  -2  12    0.14    0.31
  -5   2 -12    0.22    0.37
   6   2  12    2.89    0.61
   6  -2  12    2.49    0.47
  -6  -2 -12    2.64    0.62
   6  -2  12    3.38    0.63
  -6   2 -12    3.25    0.62
  -7  -2 -12    1.04    0.45
   7   2  12    0.05    0.42
  -7   2 -12    0.42    0.40
  -8  -2 -12    0.63    0.47
   8   2  12   -0.45    0.58
   8  -3 -12    0.91    0.43
  -8   3  12   -0.37    0.55
  -7   3  12    2.19    0.59
   7  -3 -12    2.42    0.54
  -7  -3  12    3.46    0.77
  -6  -3  12    0.35    0.47
  -6   3  12    0.23    0.38
   6  -3 -12    0.05    0.25
   5   3 -12    2.27    0.44
   5  -3 -12    1.74    0.41
  -5  -3  12    1.68    0.47
  -5  -3  12    1.76    0.37
  -5   3  12    0.66    0.38
   4   3 -12   15.38    1.19
  -4   3  12   15.66    1.28
   4  -3 -12   18.16    1.25
  -4  -3  12   16.27    1.15
   4   3 -12   16.28    1.28
   4  -3 -12   15.65    1.20
  -4  -3  12   17.22    1.26
   3  -3 -12    2.70    0.41
   3   3 -12    2.94    0.47
  -3   3  12    2.47    0.47
   3   3 -12    3.15    0.39
  -3  -3  12    2.75    0.40
  -3   3  12    2.89    0.42
   2   3 -12    7.49    0.71
   2   3 -12    7.11    0.59
  -2  -3  12    6.26    0.60
  -2   3  12    5.95    0.61
   2  -3 -12    7.52    0.67
  -2   3  12    7.30    0.69
  -1  -3  12    6.54    0.57
   1   3 -12    6.28    0.58
  -1   3  12    6.52    0.58
  -1   3  12    6.42    0.61
   1  -3 -12    6.15    0.63
   1   3 -12    5.59    0.63
   0   3 -12    9.61    0.84
   0  -3  12   10.65    0.79
   0   3  12   10.55    0.77
   0   3 -12    9.81    0.80
   0   3  12   10.59    0.84
   0  -3 -12   10.32    0.86
  -1  -3 -12    0.00    0.19
   1  -3  12   -0.10    0.15
  -1   3 -12    0.03    0.18
  -1   3 -12    0.12    0.19
   1   3  12   -0.10    0.14
   1   3  12   -0.08    0.20
  -2   3 -12   22.71    1.58
  -2   3 -12   21.51    1.61
   2   3  12   20.79    1.43
   2   3  12   22.67    1.65
   2  -3  12   22.29    1.50
  -2  -3 -12   24.72    1.63
  -2  -3 -12   25.85    1.62
  -3  -3 -12    1.12    0.33
   3  -3  12    1.76    0.35
  -3  -3 -12    2.27    0.43
   3   3  12    1.64    0.43
  -3   3 -12    2.01    0.36
  -3   3 -12    1.62    0.37
   3   3  12    1.93    0.29
   4   3  12    7.63    0.87
  -4   3 -12    8.27    0.86
  -4  -3 -12   10.80    0.94
  -4  -3 -12   10.55    0.85
   4  -3  12   10.22    0.83
   5   3  12   -0.25    0.34
   5  -3  12   -0.06    0.23
  -5  -3 -12    0.61    0.36
  -5  -3 -12   -0.02    0.26
  -5   3 -12   -0.37    0.29
  -6   3 -12    2.66    0.58
  -6  -3 -12    2.30    0.59
   6   3  12    3.26    0.65
   6  -3  12    3.06    0.51
   7   3  12    3.69    0.78
  -7  -3 -12    4.08    0.74
  -7   3 -12    3.69    0.70
  -8  -3 -12    1.58    0.56
  -8   4  12    0.62    0.64
   8  -4 -12    0.79    0.41
  -7   4  12    0.34    0.46
   7  -4 -12    0.63    0.36
  -6  -4  12    6.95    0.85
  -6  -4  12    5.01    0.57
   6  -4 -12    4.30    0.65
  -6   4  12    5.61    0.78
   5   4 -12    3.58    0.55
  -5  -4  12    2.64    0.43
   5  -4 -12    4.06    0.58
  -5   4  12    3.03    0.56
  -5  -4  12    4.26    0.65
   4   4 -12    6.67    0.66
  -4  -4  12    6.19    0.62
   4  -4 -12    6.87    0.72
  -4   4  12    6.92    0.78
   4  -4 -12    6.48    0.64
  -4  -4  12    7.41    0.77
  -3   4  12   80.16    4.63
  -3   4  12   74.80    5.05
  -3  -4  12   83.88    4.97
   3  -4 -12   82.38    4.91
   3   4 -12   72.97    4.99
  -3  -4  12   78.16    4.59
   2  -4 -12   52.95    3.21
   2   4 -12   45.54    3.21
  -2   4  12   51.58    3.02
  -2   4  12   48.12    3.26
  -2  -4  12   51.69    3.00
   1  -4 -12    1.77    0.38
  -1   4  12    2.63    0.42
  -1   4  12    1.79    0.32
   1   4 -12    2.50    0.37
  -1  -4  12    1.71    0.32
   1   4 -12    1.36    0.37
   0  -4 -12    3.39    0.48
   0   4  12    4.08    0.51
   0   4 -12    3.50    0.48
   0   4 -12    3.50    0.45
   0  -4  12    3.45    0.42
   0   4  12    3.47    0.41
  -1   4 -12   -0.06    0.20
   1  -4  12    0.13    0.17
   1   4  12   -0.01    0.20
  -1  -4 -12    0.03    0.21
  -1   4 -12   -0.17    0.18
   1   4  12   -0.05    0.15
   2   4  12    6.40    0.72
  -2  -4 -12    6.71    0.68
   2  -4  12    5.55    0.58
   2   4  12    5.31    0.50
  -2   4 -12    5.63    0.64
  -2   4 -12    5.98    0.59
  -3  -4 -12    4.36    0.57
  -3   4 -12    4.91    0.61
   3  -4  12    4.85    0.55
  -3  -4 -12    4.86    0.59
   3   4  12    5.85    0.69
  -3   4 -12    5.34    0.56
  -4  -4 -12   -0.34    0.26
   4   4  12   -0.24    0.28
  -4   4 -12    0.03    0.28
   4  -4  12    0.03    0.24
  -4  -4 -12    0.10    0.25
  -5  -4 -12   28.71    1.98
   5   4  12   27.74    2.08
   5  -4  12   28.75    1.92
  -5  -4 -12   28.24    2.12
  -5   4 -12   29.23    2.13
  -6   4 -12    3.82    0.70
   6   4  12    3.98    0.73
   6  -4  12    3.79    0.58
  -6  -4 -12    4.59    0.74
   7  -4  12    3.16    0.56
  -7   4 -12    2.86    0.64
   7   4  12    2.08    0.70
  -7  -4 -12    2.75    0.64
  -8  -4 -12   10.86    1.16
  -8   5  12    0.05    0.64
   8  -5 -12    0.12    0.33
   7  -5 -12    2.75    0.59
  -7   5  12    3.27    0.73
  -6  -5  12    0.02    0.35
  -6   5  12    0.10    0.37
   6  -5 -12    0.14    0.29
   6   5 -12   -0.13    0.38
   5   5 -12    7.87    0.84
  -5   5  12    6.68    0.83
  -5  -5  12    8.13    0.83
  -5  -5  12    6.55    0.66
   5  -5 -12    6.55    0.78
  -4  -5  12    0.85    0.27
  -4   5  12    0.64    0.37
   4   5 -12    1.38    0.36
  -4  -5  12    0.84    0.39
   4  -5 -12    0.65    0.33
   4  -5 -12    1.23    0.34
  -3   5  12    1.67    0.42
  -3  -5  12    1.88    0.34
  -3  -5  12    1.69    0.44
   3  -5 -12    1.04    0.36
   3  -5 -12    1.90    0.38
   3   5 -12    1.62    0.34
  -2   5  12    6.32    0.61
  -2  -5  12    7.31    0.72
  -2  -5  12    6.80    0.59
   2  -5 -12    6.31    0.67
  -2   5  12    5.71    0.64
   2   5 -12    6.25    0.60
  -1  -5  12   14.22    1.01
   1  -5 -12   15.05    1.11
  -1  -5  12   14.00    1.11
  -1   5  12   13.24    1.10
   1   5 -12   13.86    1.06
  -1   5  12   13.10    1.00
   0  -5  12    0.37    0.21
   0   5 -12    0.51    0.26
   0  -5 -12    0.98    0.32
   0   5 -12    0.22    0.26
   0   5  12    0.54    0.30
   0   5  12    0.53    0.21
  -1  -5 -12    1.26    0.37
   1   5  12    1.37    0.34
  -1   5 -12    0.94    0.31
   1   5  12    1.17    0.24
  -1   5 -12    1.31    0.34
   1  -5  12    1.26    0.29
  -2   5 -12    0.04    0.24
   2   5  12    0.17    0.16
  -2  -5 -12    0.39    0.28
   2   5  12    0.30    0.31
  -2   5 -12    0.00    0.22
   2  -5  12   -0.27    0.18
  -3  -5 -12    6.51    0.67
  -3   5 -12    7.69    0.68
   3   5  12    7.59    0.83
  -3   5 -12    6.86    0.72
  -3  -5 -12    7.52    0.74
   3  -5  12    7.27    0.72
  -4   5 -12    6.06    0.72
  -4  -5 -12    6.57    0.70
   4  -5  12    5.48    0.64
  -4  -5 -12    5.38    0.67
   4   5  12    4.52    0.71
  -5  -5 -12    2.72    0.49
   5   5  12    2.32    0.57
   5  -5  12    1.98    0.45
  -5  -5 -12    2.09    0.52
  -5   5 -12    2.98    0.57
   6  -5  12    5.40    0.74
   6   5  12    6.47    0.92
  -6  -5 -12    6.83    0.88
  -6   5 -12    8.12    0.93
  -7   5 -12    2.56    0.62
  -7  -5 -12    2.90    0.64
   7   5  12    1.90    0.71
   7  -5  12    1.96    0.48
   7  -6 -12    4.92    0.73
  -7   6  12    2.92    0.75
  -6   6  12    0.63    0.43
   6  -6 -12    0.40    0.34
   6   6 -12    0.68    0.46
  -6  -6  12    0.23    0.36
  -5  -6  12    2.45    0.53
  -5  -6  12    3.43    0.45
  -5   6  12    2.52    0.57
   5   6 -12    3.45    0.59
   5  -6 -12    2.52    0.51
   4   6 -12    0.33    0.32
   4  -6 -12    0.39    0.28
  -4  -6  12    0.01    0.20
  -4   6  12    0.38    0.38
   4  -6 -12    0.10    0.27
  -4  -6  12    0.16    0.34
  -3  -6  12    1.33    0.31
  -3  -6  12    1.78    0.47
   3   6 -12    2.78    0.42
  -3   6  12    1.53    0.46
   3  -6 -12    1.47    0.38
   3  -6 -12    2.28    0.40
  -2  -6  12    3.90    0.46
   2  -6 -12    3.63    0.52
  -2  -6  12    4.32    0.59
   2   6 -12    4.00    0.49
   2  -6 -12    2.92    0.46
  -2   6  12    3.64    0.55
   1  -6 -12    0.44    0.29
   1   6 -12   -0.01    0.22
  -1   6  12    0.02    0.17
  -1   6  12    0.13    0.30
  -1  -6  12    0.20    0.20
  -1  -6  12   -0.42    0.25
   0   6  12    4.14    0.46
   0   6 -12    4.72    0.57
   0  -6  12    4.41    0.56
   0  -6 -12    4.99    0.61
   0  -6  12    3.72    0.48
   0   6  12    4.38    0.58
   1   6  12    0.16    0.18
  -1   6 -12    0.31    0.25
  -1  -6 -12    0.01    0.25
  -1   6 -12   -0.40    0.21
   1  -6  12    0.18    0.21
   1   6  12    0.04    0.25
  -2   6 -12    0.13    0.26
  -2  -6 -12    0.20    0.28
   2   6  12    0.13    0.32
  -2   6 -12   -0.03    0.25
   2  -6  12   -0.08    0.20
   3  -6  12    0.55    0.29
  -3   6 -12    0.63    0.29
  -3  -6 -12    0.87    0.35
  -3   6 -12    0.67    0.34
   3   6  12    0.91    0.39
  -4  -6 -12   -0.11    0.27
  -4  -6 -12    0.52    0.25
   4  -6  12    0.17    0.26
  -4   6 -12   -0.12    0.27
   4   6  12    0.12    0.34
   5   6  12    2.69    0.62
   5  -6  12    2.22    0.48
  -5   6 -12    2.93    0.58
  -5  -6 -12    2.64    0.51
  -5  -6 -12    2.13    0.48
   6   6  12    6.93    0.94
  -6  -6 -12    7.20    0.89
  -6   6 -12    7.39    0.95
   6  -6  12    7.21    0.83
   7   6  12    0.20    0.58
   7  -6  12    1.38    0.48
  -7   6 -12    0.70    0.43
  -7  -6 -12    0.64    0.43
  -7   7  12    2.02    0.65
   7  -7 -12    2.54    0.55
   7   7 -12    1.84    0.60
   6   7 -12    0.81    0.46
   6  -7 -12    0.90    0.41
  -6   7  12    0.55    0.45
  -6  -7  12    0.59    0.41
   5   7 -12    6.10    0.76
   5  -7 -12    4.40    0.67
  -5  -7  12    5.17    0.72
  -5   7  12    4.48    0.71
  -4   7  12   17.01    1.38
  -4  -7  12   15.74    1.37
   4  -7 -12   16.80    1.30
   4   7 -12   17.12    1.33
  -4  -7  12   17.63    1.20
   3  -7 -12    0.84    0.34
   3   7 -12    0.69    0.33
  -3  -7  12    0.50    0.37
  -3   7  12    0.53    0.37
  -3  -7  12    0.45    0.25
   3  -7 -12    0.39    0.29
  -2  -7  12   19.04    1.45
  -2   7  12   18.30    1.44
   2  -7 -12   18.10    1.32
   2  -7 -12   20.93    1.46
   2   7 -12   16.98    1.37
  -2  -7  12   19.70    1.29
   1  -7 -12    1.31    0.31
  -1  -7  12    1.21    0.32
   1   7 -12    1.92    0.38
  -1   7  12    1.98    0.46
   1  -7 -12    1.65    0.42
  -1  -7  12    0.85    0.38
   0  -7 -12    0.38    0.30
   0   7  12    0.34    0.21
   0   7 -12    0.56    0.29
   0  -7  12    0.13    0.28
   0   7  12    0.21    0.28
   0  -7  12    0.38    0.24
  -1   7 -12    7.26    0.76
   1   7  12    6.63    0.76
   1  -7  12    6.41    0.66
  -1  -7 -12    6.02    0.73
  -2   7 -12   17.87    1.47
   2   7  12   20.72    1.51
   2  -7  12   17.77    1.35
  -2   7 -12   20.03    1.43
  -2  -7 -12   19.53    1.47
   3  -7  12   13.54    1.13
  -3   7 -12   16.11    1.27
  -3  -7 -12   16.17    1.27
   3   7  12   14.52    1.26
  -3   7 -12   15.06    1.17
   4   7  12    7.83    0.90
  -4   7 -12    7.56    0.87
   4  -7  12    7.10    0.77
  -4  -7 -12    7.28    0.81
  -5  -7 -12    0.38    0.35
   5  -7  12    0.24    0.30
  -5   7 -12    0.50    0.36
   5   7  12    0.42    0.41
   6   7  12   11.99    1.22
  -6   7 -12   12.61    1.18
   6  -7  12   12.03    1.10
  -6  -7 -12   12.04    1.11
  -7  -7 -12    7.68    0.90
  -7   7 -12    7.11    0.98
   7  -7  12    6.45    0.86
   7   8 -12    0.68    0.53
  -7   8  12   -0.06    0.40
   7  -8 -12    0.69    0.34
  -6   8  12    9.31    1.06
  -6  -8  12    9.05    1.02
   6  -8 -12    9.05    1.00
   6   8 -12    9.61    1.02
  -5  -8  12    0.57    0.39
   5   8 -12    0.51    0.38
  -5   8  12   -0.39    0.34
   5  -8 -12   -0.81    0.23
  -4   8  12    2.73    0.58
   4   8 -12    3.24    0.53
  -4  -8  12    2.41    0.39
   4  -8 -12    2.37    0.51
  -4  -8  12    1.69    0.52
  -3  -8  12   26.22    1.63
   3  -8 -12   24.26    1.69
   3   8 -12   24.18    1.79
  -3  -8  12   24.75    1.84
  -3   8  12   20.83    1.79
   3  -8 -12   26.41    1.79
   2   8 -12   17.68    1.42
   2  -8 -12   19.23    1.36
   2  -8 -12   22.55    1.51
  -2  -8  12   20.62    1.34
  -2   8  12   18.11    1.47
  -2  -8  12   17.02    1.47
   1   8 -12    7.10    0.77
  -1  -8  12    5.64    0.76
   1  -8 -12    6.93    0.65
  -1   8  12    8.11    0.80
  -1  -8  12    7.21    0.67
   1  -8 -12    7.18    0.80
   0   8 -12    0.07    0.28
   0   8  12    0.13    0.28
   0  -8 -12    0.14    0.21
   0  -8  12   -0.01    0.29
   0  -8 -12    0.23    0.32
   0  -8  12   -0.10    0.20
   1  -8  12   27.43    2.00
  -1  -8 -12   32.10    2.09
   1   8  12   27.70    2.07
  -1   8 -12   28.94    2.07
   1  -8  12   27.78    1.89
  -2   8 -12    8.38    0.78
  -2   8 -12    7.27    0.80
  -2  -8 -12    9.11    0.92
   2   8  12    7.81    0.84
   2  -8  12    7.56    0.77
  -3  -8 -12    0.31    0.34
  -3   8 -12   -0.12    0.30
   3   8  12    0.24    0.35
   3  -8  12    0.24    0.26
   4  -8  12    0.59    0.33
  -4  -8 -12    0.36    0.36
  -4   8 -12    0.66    0.36
   4   8  12    0.86    0.41
   5  -8  12    9.43    0.97
  -5  -8 -12   10.77    0.99
   5   8  12    9.74    1.02
  -5   8 -12    9.23    0.98
   6  -8  12    4.46    0.71
  -6   8 -12    6.45    0.85
   6   8  12    4.96    0.89
   7   9 -12    2.55    0.63
   6  -9 -12    0.86    0.47
  -6   9  12    1.01    0.49
   6   9 -12    1.31    0.50
  -6  -9  12    0.59    0.50
   5   9 -12    0.25    0.36
  -5  -9  12    0.09    0.39
  -5   9  12   -0.03    0.40
   5  -9 -12   -0.22    0.31
  -4   9  12    3.78    0.66
  -4  -9  12    3.01    0.66
   4  -9 -12    3.37    0.60
   4   9 -12    3.47    0.60
  -3  -9  12    0.32    0.38
  -3   9  12    0.42    0.38
   3   9 -12    0.01    0.31
  -3  -9  12    0.81    0.28
   3  -9 -12    0.35    0.30
   3  -9 -12    0.47    0.37
   2   9 -12    2.90    0.53
  -2  -9  12    3.45    0.63
  -2  -9  12    3.20    0.46
   2  -9 -12    3.67    0.50
  -2   9  12    4.14    0.64
   2  -9 -12    3.64    0.58
  -1   9  12    4.43    0.69
   1  -9 -12    5.05    0.68
   1  -9 -12    4.20    0.54
   1   9 -12    4.61    0.63
  -1  -9  12    4.25    0.66
  -1  -9  12    4.09    0.53
   0  -9  12    6.75    0.77
   0   9 -12    5.03    0.70
   0  -9  12    6.62    0.68
   0  -9 -12    5.98    0.78
   0   9  12    6.71    0.81
   1  -9  12    6.32    0.70
   1  -9  12    6.49    0.75
   1   9  12    6.99    0.85
  -1  -9 -12    6.99    0.84
  -1   9 -12    7.54    0.84
  -2   9 -12    8.09    0.85
   2   9  12    7.69    0.88
   2  -9  12    7.57    0.78
  -2  -9 -12    8.24    0.90
   3   9  12    1.19    0.49
   3  -9  12    1.56    0.42
  -3   9 -12    1.69    0.49
  -3  -9 -12    1.79    0.50
   4  -9  12    0.91    0.40
   4   9  12    1.00    0.50
  -4  -9 -12    1.58    0.49
  -4   9 -12    1.18    0.44
   5  -9  12    2.61    0.56
  -5  -9 -12    3.07    0.62
  -5   9 -12    2.48    0.55
   5   9  12    3.87    0.72
   6   9  12    0.26    0.60
  -6   9 -12    0.13    0.38
  -6  -9 -12    0.64    0.46
   6  -9  12    0.19    0.35
  -7 -10  12    0.96    0.62
   7  10 -12    0.37    0.46
  -6  10  12    0.44    0.40
   6  10 -12    1.16    0.45
  -6 -10  12   -0.43    0.48
   6 -10 -12   -0.03    0.42
  -5 -10  12    2.27    0.65
  -5  10  12    2.35    0.61
   5 -10 -12    2.30    0.56
   5  10 -12    2.44    0.56
  -4  10  12    1.90    0.57
  -4 -10  12    1.86    0.55
   4 -10 -12    1.15    0.44
   4  10 -12    2.81    0.55
  -3 -10  12    1.57    0.50
   3 -10 -12    2.31    0.53
   3  10 -12    1.82    0.47
   3 -10 -12    2.45    0.50
  -3  10  12    1.58    0.48
  -2 -10  12   14.07    1.02
   2 -10 -12   14.78    1.09
   2 -10 -12   13.83    1.17
  -2  10  12   10.31    1.11
  -2 -10  12   13.98    1.21
   2  10 -12   12.03    1.10
   1 -10 -12    2.67    0.45
   1 -10 -12    3.47    0.61
  -1 -10  12    2.85    0.60
  -1 -10  12    2.91    0.46
  -1  10  12    2.55    0.61
   1  10 -12    3.19    0.57
   0 -10  12    3.22    0.52
   0  10 -12    4.89    0.67
   0  10  12    3.69    0.64
   0 -10  12    4.55    0.66
   0 -10 -12    4.03    0.68
  -1 -10 -12    7.76    0.92
   1  10  12    8.29    0.97
  -1  10 -12    8.56    0.93
   1 -10  12    7.86    0.82
   1 -10  12    7.71    0.80
   2  10  12    3.68    0.63
  -2  10 -12    4.43    0.70
   2 -10  12    3.80    0.56
  -2 -10 -12    3.89    0.68
   2 -10  12    4.02    0.59
   3  10  12    3.05    0.61
  -3  10 -12    2.56    0.56
  -3 -10 -12    2.60    0.59
   3 -10  12    2.72    0.51
   4 -10  12    2.95    0.56
  -4  10 -12    3.03    0.62
   4  10  12    3.34    0.65
  -4 -10 -12    2.88    0.62
   5  10  12    0.52    0.40
  -5 -10 -12    0.28    0.42
   5 -10  12    0.72    0.36
  -5  10 -12    0.16    0.34
  -6 -10 -12    0.99    0.57
  -6  11  12    0.33    0.45
   6  11 -12    0.32    0.38
   6 -11 -12    0.08    0.46
  -6 -11  12    0.35    0.55
   5  11 -12    0.19    0.37
  -5  11  12    0.56    0.42
  -5 -11  12   -0.17    0.45
   5 -11 -12   -0.04    0.43
  -4  11  12   10.87    1.06
   4  11 -12   10.81    1.04
  -4 -11  12   10.10    1.14
   4 -11 -12    9.35    1.01
   3  11 -12    0.02    0.34
  -3  11  12   -0.27    0.33
   3 -11 -12    0.10    0.32
  -3 -11  12   -0.26    0.38
  -2  11  12    4.97    0.73
   2 -11 -12    5.31    0.73
  -2 -11  12    4.06    0.71
  -2 -11  12    3.24    0.50
   2  11 -12    4.98    0.69
   2 -11 -12    5.05    0.64
  -1  11  12    3.00    0.62
  -1 -11  12    1.62    0.37
   1  11 -12    2.60    0.53
   1 -11 -12    1.99    0.54
  -1 -11  12    2.37    0.57
   0 -11  12    5.55    0.65
   0 -11  12    4.34    0.70
   0 -11 -12    5.97    0.78
   0  11 -12    4.80    0.69
   0  11  12    4.26    0.75
   1 -11  12    4.67    0.62
  -1  11 -12    4.62    0.70
  -1 -11 -12    4.44    0.73
   1  11  12    5.01    0.76
   1 -11  12    4.28    0.65
  -2  11 -12    6.56    0.87
   2 -11  12    6.13    0.72
   2 -11  12    5.75    0.73
   2  11  12    6.33    0.82
  -2 -11 -12    5.52    0.82
   3  11  12    2.46    0.58
  -3 -11 -12    1.69    0.52
   3 -11  12    0.89    0.40
  -3  11 -12    2.06    0.52
   4  11  12   10.60    1.08
   4 -11  12   10.41    1.08
  -4 -11 -12   11.00    1.13
  -4  11 -12   11.67    1.13
   5 -11  12    0.94    0.42
   5  11  12    0.73    0.51
  -5  11 -12    0.89    0.46
  -5 -11 -12    1.23    0.56
  -6 -11 -12   -0.23    0.50
  -5 -12  12    0.04    0.49
   5  12 -12    0.96    0.43
  -5  12  12    0.46    0.42
   5 -12 -12    0.21    0.46
  -4  12  12    0.44    0.40
   4 -12 -12    0.23    0.40
   4  12 -12    0.00    0.35
  -4 -12  12   -0.72    0.43
   3  12 -12    3.31    0.61
  -3 -12  12    2.43    0.62
  -3  12  12    2.75    0.62
   3 -12 -12    2.26    0.52
  -2  12  12    1.29    0.47
   2  12 -12    1.27    0.47
   2 -12 -12    0.94    0.46
  -2 -12  12    1.28    0.49
   1  12 -12    2.26    0.52
   1 -12 -12    2.17    0.58
  -1  12  12    2.49    0.63
  -1 -12  12    2.03    0.53
  -1 -12  12    1.66    0.40
   0 -12 -12    6.22    0.83
   0  12  12    6.04    0.85
   0  12 -12    6.22    0.79
   0 -12  12    5.36    0.77
   0 -12  12    5.21    0.66
   1 -12  12    2.55    0.50
   1 -12  12    2.49    0.58
  -1  12 -12    3.80    0.67
   1  12  12    4.20    0.72
  -1 -12 -12    2.67    0.63
   2 -12  12    3.69    0.61
   2  12  12    3.91    0.74
  -2  12 -12    4.23    0.72
  -2 -12 -12    4.21    0.72
   3 -12  12    1.69    0.49
  -3 -12 -12    1.22    0.53
  -3  12 -12    1.73    0.52
   3  12  12    0.98    0.47
   4 -12  12    3.27    0.63
   4  12  12    3.50    0.69
  -4 -12 -12    3.44    0.75
  -4  12 -12    2.47    0.62
  -5 -12 -12    2.37    0.71
   5 -13 -12   -0.06    0.46
   5  13 -12    1.43    0.50
   4 -13 -12   -0.17    0.42
  -4  13  12    0.69    0.42
   4  13 -12    1.09    0.45
  -4 -13  12   -0.31    0.50
   3  13 -12    1.23    0.44
   3 -13 -12    0.15    0.39
  -3 -13  12    0.73    0.45
  -3  13  12    0.39    0.39
   2 -13 -12    1.98    0.57
   2  13 -12    1.93    0.51
  -2 -13  12    1.35    0.53
  -2  13  12    1.80    0.55
  -1 -13  12    0.31    0.42
   1  13 -12   -0.37    0.29
  -1  13  12    0.76    0.45
   1 -13 -12    0.72    0.44
   0 -13  12    0.03    0.37
   0 -13 -12    0.23    0.40
   0  13  12    0.41    0.43
   0 -13  12    0.63    0.29
   0  13 -12    0.63    0.35
  -1  13 -12    1.98    0.50
  -1 -13 -12    1.60    0.53
   1  13  12    1.21    0.51
   1 -13  12    0.14    0.29
   1 -13  12    1.09    0.45
  -2 -13 -12    1.50    0.54
   2 -13  12    0.77    0.38
  -2  13 -12    0.45    0.45
   2  13  12    0.60    0.48
  -3 -13 -12    6.29    0.97
   3 -13  12    5.86    0.80
   3  13  12    5.57    0.81
  -3  13 -12    5.06    0.81
  -4 -13 -12    0.25    0.55
   4 -13  12    0.38    0.47
   4  13  12    0.26    0.49
  -4  13 -12    0.10    0.37
   4 -14 -12    1.44    0.63
   4  14 -12    1.52    0.53
  -3  14  12    0.65    0.46
  -3 -14  12    0.35    0.45
   3  14 -12    0.75    0.39
  -2 -14  12    0.35    0.45
   2 -14 -12    0.26    0.43
  -2  14  12   -0.12    0.36
   2  14 -12    0.87    0.42
  -1 -14  12    1.15    0.49
   1 -14 -12    1.85    0.55
  -1  14  12    1.14    0.51
   1  14 -12    1.91    0.55
   0 -14  12    1.58    0.50
   0  14  12    0.19    0.41
   0 -14  12    0.60    0.35
   0  14 -12    1.08    0.45
   0 -14 -12    1.46    0.49
  -1 -14 -12    0.75    0.51
   1  14  12    0.71    0.45
   1 -14  12    0.53    0.45
  -1  14 -12    1.09    0.47
   1 -14  12    0.37    0.33
   2 -14  12    1.16    0.47
   2  14  12    1.53    0.53
  -2 -14 -12    2.29    0.64
  -2  14 -12    1.73    0.58
   3 -14  12    0.97    0.47
  -3 -14 -12    0.22    0.57
   3  14  12    0.25    0.48
  -3  14 -12    0.31    0.44
  -2 -15  12    2.00    0.64
   2  15 -12    2.53    0.63
  -2  15  12    2.26    0.62
  -1 -15  12    0.63    0.48
  -1  15  12    0.57    0.42
   1  15 -12    0.00    0.39
   1 -15 -12    1.38    0.51
   0  15 -12    0.44    0.40
   0 -15  12    1.30    0.53
   0 -15 -12    1.43    0.53
   0  15  12    0.66    0.53
  -1  15 -12    5.94    0.90
   1 -15  12    6.22    0.88
   1  15  12    7.37    1.02
  -1 -15 -12    9.83    1.11
   1 -15  12    5.88    0.78
   2  15  12    1.51    0.58
   2 -15  12    2.46    0.60
   1 -16 -12    2.05    0.65
   0 -16  12    3.24    0.75
  -8   0  13   -0.69    0.67
   8   0 -13    0.64    0.37
  -7   0  13    0.57    0.46
   7   0 -13   -0.01    0.27
  -6   0  13    0.35    0.37
   6   0 -13   -0.01    0.29
   5   0 -13    0.18    0.22
  -5   0  13   -0.04    0.31
  -5   0  13   -0.09    0.21
   4   0 -13   -0.14    0.21
  -4   0  13    0.14    0.20
  -4   0  13   -0.38    0.27
  -3   0  13    0.13    0.17
   3   0 -13   -0.09    0.19
  -3   0  13    0.24    0.26
  -2   0  13   -0.02    0.17
   2   0 -13    0.22    0.20
  -2   0  13   -0.43    0.23
   1   0 -13    1.06    0.30
  -1   0  13    0.59    0.22
   0   0  13   -0.12    0.13
   0   0 -13    0.26    0.21
  -1   0 -13    0.18    0.21
   1   0  13   -0.02    0.15
  -1   0 -13    0.10    0.17
   2   0  13    0.03    0.19
   2   0  13   -0.24    0.24
  -2   0 -13    0.11    0.18
  -2   0 -13   -0.22    0.20
   3   0  13    0.12    0.20
   3   0  13   -0.03    0.28
  -3   0 -13    0.19    0.26
  -3   0 -13    0.32    0.29
   4   0  13    0.14    0.32
  -4   0 -13    0.19    0.32
   4   0  13   -0.02    0.21
  -4   0 -13    0.25    0.24
  -5   0 -13    0.15    0.33
   5   0  13    0.13    0.36
   5   0  13   -0.10    0.22
   6   0  13    0.00    0.38
  -6   0 -13    0.48    0.40
  -7   0 -13    1.15    0.53
   7   0  13    0.11    0.45
   8   0  13    0.43    0.63
  -8  -1  13   -0.17    0.74
   8  -1 -13    0.71    0.39
  -8   1  13   -0.11    0.67
   8   1 -13    0.92    0.37
  -7  -1  13    0.84    0.59
   7  -1 -13    0.50    0.36
  -7   1  13    0.03    0.44
   7   1 -13    0.83    0.36
   6   1 -13    0.91    0.38
  -6   1  13    0.48    0.41
   6  -1 -13    0.67    0.36
  -6  -1  13    1.02    0.47
   5   1 -13    1.17    0.36
  -5  -1  13    1.04    0.32
   5  -1 -13    1.10    0.31
  -5   1  13    0.91    0.42
  -5  -1  13    0.87    0.40
  -4  -1  13    3.69    0.49
  -4   1  13    4.14    0.52
   4  -1 -13    3.64    0.49
  -4   1  13    4.02    0.57
   4   1 -13    3.76    0.52
  -4  -1  13    4.39    0.58
  -3  -1  13    5.51    0.58
   3   1 -13    5.62    0.63
  -3   1  13    6.19    0.61
   3  -1 -13    5.07    0.58
  -3   1  13    6.52    0.67
  -3  -1  13    4.89    0.55
   2   1 -13    3.79    0.48
  -2   1  13    2.54    0.38
  -2   1  13    3.14    0.46
  -2  -1  13    2.69    0.39
   2  -1 -13    2.02    0.39
   1  -1 -13   52.02    3.49
  -1   1  13   57.04    3.53
  -1   1  13   57.53    3.28
  -1  -1  13   53.63    3.27
   1   1 -13   53.48    3.49
   0   1 -13    5.72    0.62
   0  -1  13    6.14    0.54
   0   1  13    6.30    0.56
   0   1 -13    6.18    0.52
   0  -1 -13    5.47    0.62
   0   1  13    6.06    0.56
  -1   1 -13    1.24    0.32
   1   1  13    0.44    0.24
  -1  -1 -13    0.67    0.28
   1  -1  13    1.14    0.26
  -1   1 -13    1.24    0.25
   1   1  13    0.86    0.23
   2   1  13    2.16    0.44
  -2   1 -13    1.93    0.38
   2   1  13    1.68    0.32
   2  -1  13    1.71    0.32
  -2   1 -13    2.39    0.38
  -2  -1 -13    2.44    0.38
  -2  -1 -13    2.04    0.39
  -3  -1 -13    2.51    0.45
   3  -1  13    2.16    0.37
   3   1  13    2.46    0.37
   3   1  13    2.81    0.51
  -3  -1 -13    2.15    0.44
  -3   1 -13    1.93    0.40
  -3   1 -13    2.60    0.42
   4   1  13    0.21    0.21
  -4   1 -13    0.10    0.26
   4   1  13    0.27    0.32
  -4  -1 -13    0.07    0.22
  -4  -1 -13    0.05    0.28
   4  -1  13   -0.01    0.31
   4  -1  13   -0.03    0.21
  -4   1 -13    0.28    0.31
   5  -1  13    4.34    0.65
  -5  -1 -13    5.59    0.76
   5  -1  13    4.55    0.57
   5   1  13    4.38    0.69
  -5   1 -13    5.26    0.73
   6  -1  13   -0.06    0.34
  -6   1 -13   -0.01    0.33
   6   1  13   -0.07    0.36
  -6  -1 -13    0.29    0.42
   7   1  13    6.79    0.93
  -7  -1 -13    7.95    1.03
  -7   1 -13    4.99    0.87
   8   1  13   -0.50    0.56
  -8  -2  13   -0.19    0.65
  -8   2  13   -0.20    0.57
   8  -2 -13    0.26    0.35
   7  -2 -13   11.05    1.02
  -7   2  13   10.12    1.17
  -7  -2  13   12.62    1.20
   7   2 -13    9.65    0.95
   6  -2 -13    0.27    0.29
  -6  -2  13    0.39    0.44
  -6   2  13    0.29    0.37
  -5  -2  13    1.22    0.34
  -5   2  13    0.82    0.38
  -5  -2  13    1.17    0.43
   5   2 -13    1.72    0.40
   5  -2 -13    0.81    0.33
  -4  -2  13   -0.06    0.30
   4   2 -13    0.38    0.27
  -4   2  13   -0.06    0.27
   4  -2 -13    0.27    0.23
  -4   2  13    0.21    0.21
  -4  -2  13    0.46    0.24
  -3   2  13    0.98    0.29
  -3  -2  13    1.21    0.30
   3   2 -13    1.12    0.34
   3  -2 -13    1.25    0.32
  -3   2  13    1.23    0.38
  -2  -2  13   48.42    2.81
   2  -2 -13   42.93    2.97
  -2   2  13   46.43    2.81
   2   2 -13   48.32    3.02
  -2   2  13   44.81    3.03
   1   2 -13   26.44    1.80
  -1   2  13   28.38    1.69
   1  -2 -13   25.03    1.78
  -1   2  13   25.22    1.78
  -1  -2  13   26.05    1.65
   1   2 -13   24.70    1.74
   0   2  13   14.07    1.02
   0   2 -13   12.71    0.97
   0  -2 -13   13.41    1.04
   0   2 -13   12.90    1.04
   0   2  13   13.52    0.95
   0  -2  13   13.28    0.96
   1  -2  13   20.62    1.28
  -1   2 -13   19.02    1.34
   1   2  13   20.16    1.25
  -1  -2 -13   20.98    1.39
  -1   2 -13   16.43    1.34
   1   2  13   16.33    1.32
  -2   2 -13   16.60    1.29
   2  -2  13   16.49    1.21
   2   2  13   18.41    1.35
   2   2  13   18.40    1.20
  -2  -2 -13   19.93    1.31
  -2  -2 -13   17.55    1.32
  -2   2 -13   16.90    1.30
  -3   2 -13    0.29    0.25
  -3  -2 -13   -0.01    0.25
   3   2  13   -0.14    0.18
  -3  -2 -13    0.13    0.26
   3  -2  13    0.16    0.22
   3   2  13   -0.20    0.28
  -3   2 -13    0.05    0.22
  -4   2 -13    7.11    0.79
   4   2  13    6.24    0.79
  -4  -2 -13    6.60    0.69
   4  -2  13    6.80    0.67
  -4   2 -13    6.24    0.64
  -4  -2 -13    7.92    0.82
   5  -2  13   10.58    0.91
  -5   2 -13   11.23    1.05
   5   2  13   10.83    1.04
  -5  -2 -13   11.61    1.10
  -6  -2 -13    7.08    0.91
  -6   2 -13    8.40    0.96
   6  -2  13    6.28    0.73
   6   2  13    6.46    0.89
  -7   2 -13    5.63    0.88
  -7  -2 -13    8.84    1.02
   7   2  13    6.49    0.96
  -8   3  13    2.84    0.79
   8  -3 -13    1.95    0.51
   7  -3 -13    1.41    0.43
  -7   3  13    0.11    0.44
  -7  -3  13    1.16    0.58
   6  -3 -13    0.20    0.30
  -6  -3  13    0.14    0.43
  -6  -3  13    0.23    0.23
  -6   3  13    0.12    0.37
  -5  -3  13    2.68    0.43
   5   3 -13    3.50    0.55
  -5   3  13    1.82    0.49
   5  -3 -13    3.03    0.54
  -5  -3  13    3.11    0.59
  -4   3  13    2.51    0.50
  -4  -3  13    1.95    0.37
   4   3 -13    2.27    0.46
   4  -3 -13    2.94    0.42
  -3   3  13    9.60    0.85
   3   3 -13    9.49    0.86
  -3  -3  13    9.20    0.76
   3  -3 -13    8.20    0.77
  -3   3  13    9.04    0.78
   2   3 -13    4.22    0.44
  -2   3  13    4.66    0.57
  -2   3  13    4.09    0.50
   2  -3 -13    3.85    0.51
   2   3 -13    4.63    0.58
  -2  -3  13    3.75    0.47
  -1  -3  13   21.56    1.39
   1   3 -13   20.59    1.51
  -1   3  13   20.17    1.49
  -1   3  13   21.18    1.40
   1  -3 -13   22.41    1.52
   1   3 -13   19.85    1.44
   0   3 -13    1.44    0.36
   0   3  13    2.33    0.39
   0  -3 -13    2.26    0.41
   0   3  13    2.64    0.35
   0  -3  13    2.06    0.34
   0   3 -13    2.31    0.35
   1   3  13    6.30    0.55
   1  -3  13    6.89    0.58
   1   3  13    5.49    0.59
  -1   3 -13    6.29    0.59
  -1  -3 -13    6.52    0.65
  -1   3 -13    6.15    0.63
   2  -3  13   15.49    1.19
  -2   3 -13   19.00    1.30
  -2  -3 -13   17.95    1.31
  -2   3 -13   16.41    1.28
   2   3  13   17.58    1.15
   2   3  13   17.37    1.34
   3   3  13    1.79    0.44
   3   3  13    1.45    0.28
   3  -3  13    1.43    0.34
  -3   3 -13    1.93    0.40
  -3   3 -13    1.21    0.35
  -3  -3 -13    1.61    0.39
  -3  -3 -13    1.47    0.40
  -4  -3 -13    0.21    0.32
   4  -3  13    0.16    0.22
  -4   3 -13    0.33    0.31
  -4  -3 -13   -0.06    0.25
   4   3  13    0.02    0.33
   5   3  13    3.57    0.63
  -5   3 -13    2.96    0.60
  -5  -3 -13    3.05    0.60
  -5  -3 -13    3.46    0.50
   5  -3  13    3.40    0.51
   6   3  13    5.57    0.80
  -6  -3 -13    6.12    0.82
   6  -3  13    4.41    0.63
  -6   3 -13    4.62    0.75
  -7  -3 -13    4.13    0.77
   7   3  13    5.11    0.91
  -7   3 -13    4.81    0.79
  -8   4  13   -0.40    0.60
   8  -4 -13    0.32    0.44
  -7   4  13   -0.01    0.46
   7  -4 -13    0.21    0.34
   6   4 -13    2.58    0.54
   6  -4 -13    2.80    0.56
  -6  -4  13    2.69    0.44
  -6   4  13    2.89    0.58
  -5  -4  13    0.21    0.24
   5  -4 -13    0.01    0.26
  -5   4  13    0.32    0.36
   5   4 -13    0.53    0.33
   4   4 -13    3.60    0.58
  -4  -4  13    3.89    0.50
  -4   4  13    5.62    0.67
   4  -4 -13    4.66    0.54
   4  -4 -13    4.23    0.58
   3  -4 -13    0.34    0.25
  -3   4  13    0.12    0.28
   3   4 -13    0.09    0.21
   3   4 -13   -0.01    0.24
  -3  -4  13    0.02    0.18
  -3   4  13    0.13    0.22
  -2   4  13    1.48    0.34
   2   4 -13    2.26    0.35
  -2   4  13    2.28    0.43
   2  -4 -13    1.53    0.39
  -2  -4  13    2.43    0.37
   2   4 -13    1.99    0.42
  -1   4  13    0.06    0.17
   1   4 -13    0.00    0.24
   1   4 -13    0.26    0.22
   1  -4 -13   -0.05    0.24
  -1  -4  13    0.53    0.22
  -1   4  13    0.09    0.25
   0  -4 -13   -0.33    0.19
   0   4  13    0.10    0.17
   0   4 -13   -0.04    0.20
   0   4  13    0.47    0.27
   0   4 -13    0.00    0.24
   0  -4  13    0.11    0.18
  -1   4 -13    1.84    0.37
  -1   4 -13    1.74    0.36
   1   4  13    1.67    0.29
  -1  -4 -13    2.02    0.41
   1  -4  13    1.84    0.34
   1   4  13    1.33    0.34
  -2   4 -13    1.99    0.38
   2  -4  13    1.66    0.34
   2   4  13    2.01    0.48
  -2   4 -13    1.94    0.39
   2   4  13    1.60    0.28
  -2  -4 -13    1.02    0.35
  -3  -4 -13    0.17    0.24
  -3   4 -13   -0.01    0.24
   3   4  13   -0.01    0.31
   3  -4  13    0.19    0.22
  -3   4 -13   -0.11    0.23
   4   4  13    2.89    0.58
   4  -4  13    3.35    0.48
  -4  -4 -13    2.32    0.47
  -4   4 -13    2.62    0.54
  -4  -4 -13    3.16    0.52
  -5   4 -13    2.02    0.53
   5  -4  13    2.09    0.46
  -5  -4 -13    3.04    0.51
   5   4  13    3.30    0.61
  -5  -4 -13    2.30    0.53
   6   4  13   -0.01    0.40
  -6   4 -13    0.16    0.39
   6  -4  13    0.34    0.30
  -6  -4 -13    0.90    0.46
   7   4  13   -0.23    0.52
   7  -4  13    0.37    0.37
  -7  -4 -13    0.37    0.39
  -7   4 -13    0.49    0.39
   8  -5 -13   -0.16    0.37
  -7   5  13    1.44    0.59
   7  -5 -13    1.77    0.53
   6  -5 -13    1.29    0.42
  -6   5  13    0.93    0.48
   5  -5 -13   -0.36    0.24
  -5  -5  13    0.23    0.33
  -5  -5  13   -0.01    0.21
  -5   5  13   -0.11    0.33
  -4   5  13   10.61    1.04
  -4  -5  13   12.65    1.10
  -4  -5  13   12.76    0.94
   4  -5 -13   11.83    1.00
   4  -5 -13   12.79    1.04
   4   5 -13   12.41    0.99
   3  -5 -13    3.42    0.50
  -3  -5  13    3.23    0.44
   3  -5 -13    2.77    0.49
   3   5 -13    4.09    0.51
  -3  -5  13    2.50    0.53
  -3   5  13    3.35    0.56
  -2   5  13    4.34    0.57
  -2   5  13    3.76    0.50
   2   5 -13    3.83    0.48
  -2  -5  13    4.07    0.48
   2  -5 -13    4.09    0.54
  -1   5  13   11.01    0.82
   1   5 -13    9.57    0.84
  -1  -5  13   10.70    0.82
   1   5 -13   11.28    0.93
   1  -5 -13    9.97    0.88
  -1   5  13    8.99    0.88
   0   5 -13    3.22    0.46
   0   5  13    2.48    0.48
   0  -5  13    3.71    0.45
   0  -5 -13    2.95    0.49
   0   5 -13    3.10    0.49
   0   5  13    2.82    0.39
   1   5  13    1.85    0.41
   1   5  13    1.69    0.30
   1  -5  13    1.99    0.36
  -1   5 -13    2.46    0.42
  -1   5 -13    1.39    0.36
  -1  -5 -13    1.75    0.41
   2   5  13   19.44    1.45
  -2   5 -13   17.18    1.40
  -2  -5 -13   18.82    1.41
  -2   5 -13   20.55    1.40
   2  -5  13   17.09    1.29
   3  -5  13    3.73    0.52
   3   5  13    4.69    0.68
  -3  -5 -13    3.76    0.57
  -3   5 -13    5.15    0.57
  -3   5 -13    3.81    0.59
  -4   5 -13    7.34    0.78
   4  -5  13    7.19    0.75
  -4  -5 -13    7.47    0.79
   4   5  13    6.51    0.83
  -5   5 -13    8.23    0.94
   5   5  13    9.91    0.99
   5  -5  13   10.36    0.92
  -5  -5 -13   10.16    0.91
  -5  -5 -13    9.98    0.98
  -6   5 -13    0.87    0.45
   6   5  13    0.17    0.45
  -6  -5 -13    1.27    0.45
   6  -5  13    0.77    0.38
   7  -5  13    8.44    0.90
  -7   5 -13    8.31    1.05
  -7  -5 -13    6.60    0.93
   7   5  13    7.81    1.13
   7  -6 -13    0.68    0.38
  -7   6  13   -0.51    0.48
   6  -6 -13    3.49    0.64
  -6  -6  13    3.19    0.65
  -6   6  13    5.47    0.79
  -5   6  13    1.24    0.48
   5  -6 -13    1.03    0.41
  -5  -6  13    1.40    0.35
   5   6 -13    2.88    0.52
  -5  -6  13    1.09    0.45
   4  -6 -13   -0.03    0.24
  -4   6  13   -0.14    0.31
  -4  -6  13   -0.02    0.34
   4  -6 -13    0.16    0.29
  -4  -6  13    0.32    0.24
   4   6 -13    0.32    0.29
  -3   6  13   10.61    1.01
  -3  -6  13   11.62    0.91
   3  -6 -13   11.39    0.98
   3  -6 -13   12.56    1.00
   3   6 -13   12.13    0.97
  -3  -6  13   11.12    1.04
  -2  -6  13   34.48    2.32
  -2   6  13   31.43    2.29
   2  -6 -13   36.97    2.29
  -2  -6  13   32.42    2.08
   2   6 -13   31.26    2.24
  -1   6  13    2.42    0.39
   1  -6 -13    2.87    0.51
  -1  -6  13    2.59    0.51
  -1   6  13    3.07    0.53
   1   6 -13    2.64    0.45
  -1  -6  13    2.89    0.42
   0   6  13    9.83    0.88
   0   6 -13    8.91    0.86
   0  -6  13    9.07    0.78
   0  -6 -13   10.80    0.91
   0   6  13    8.93    0.75
   0   6 -13    9.77    0.84
  -1   6 -13   10.79    0.95
   1  -6  13   10.40    0.88
   1   6  13   12.15    0.85
   1   6  13   10.29    0.97
  -1   6 -13   11.30    0.96
  -1  -6 -13   11.62    1.00
   2  -6  13    0.63    0.28
  -2   6 -13    0.70    0.34
   2   6  13    0.08    0.29
  -2  -6 -13    0.20    0.31
  -2   6 -13    0.68    0.32
  -3   6 -13    7.26    0.78
  -3   6 -13    6.73    0.72
   3   6  13    8.78    0.92
   3  -6  13    6.98    0.73
  -3  -6 -13    7.23    0.80
   4  -6  13    0.31    0.30
   4   6  13    0.43    0.40
  -4   6 -13    0.82    0.37
  -4  -6 -13    0.34    0.32
  -5  -6 -13   -0.07    0.31
   5  -6  13    0.26    0.31
   5   6  13    0.27    0.41
  -5   6 -13    0.24    0.34
  -6   6 -13   10.25    1.06
   6  -6  13   10.51    0.98
   6   6  13   10.55    1.21
   7  -6  13    8.44    0.94
  -7   6 -13    9.16    1.10
  -7  -6 -13    7.35    0.96
   7  -7 -13    0.54    0.40
  -7   7  13   -0.03    0.54
   6   7 -13    1.54    0.52
   6  -7 -13    0.37    0.38
  -6  -7  13    1.21    0.47
  -6   7  13    0.55    0.50
   5  -7 -13   -0.17    0.27
  -5  -7  13    0.68    0.43
  -5   7  13    0.15    0.40
   5   7 -13   -0.11    0.31
  -4  -7  13    2.38    0.42
   4  -7 -13    2.78    0.53
  -4  -7  13    2.65    0.56
  -4   7  13    2.83    0.59
   4   7 -13    2.71    0.50
  -3  -7  13    3.44    0.60
  -3   7  13    3.09    0.57
  -3  -7  13    2.36    0.41
   3   7 -13    2.66    0.48
   3  -7 -13    3.36    0.55
   3  -7 -13    1.90    0.45
  -2  -7  13    1.59    0.34
   2   7 -13    1.98    0.41
   2  -7 -13    1.67    0.45
   2  -7 -13    1.43    0.38
  -2  -7  13    1.78    0.48
  -2   7  13    1.69    0.47
   1  -7 -13   26.43    1.77
  -1  -7  13   22.39    1.59
   1   7 -13   23.28    1.72
  -1   7  13   25.37    1.80
  -1  -7  13   22.65    1.75
   0   7 -13    9.11    0.85
   0   7  13    9.25    0.90
   0  -7  13    9.75    0.89
   0  -7  13   10.13    0.82
   0   7  13    9.74    0.78
   0  -7 -13    9.57    0.92
   1  -7  13    4.26    0.55
  -1   7 -13    3.95    0.58
  -1   7 -13    5.57    0.66
  -1  -7 -13    4.72    0.66
   1   7  13    5.37    0.70
   2  -7  13    0.03    0.22
   2   7  13    0.21    0.32
  -2  -7 -13   -0.17    0.28
  -2   7 -13    0.31    0.30
  -2   7 -13    0.58    0.32
   3   7  13    5.54    0.76
  -3   7 -13    5.28    0.70
   3  -7  13    5.17    0.61
  -3  -7 -13    3.65    0.64
   4   7  13    2.46    0.58
  -4  -7 -13    2.36    0.53
   4  -7  13    3.14    0.50
  -4   7 -13    2.11    0.52
  -5   7 -13    4.45    0.71
   5   7  13    3.52    0.69
  -5  -7 -13    4.12    0.64
   5  -7  13    4.23    0.64
  -6   7 -13    0.91    0.43
   6  -7  13    0.74    0.39
   6   7  13    1.08    0.60
   7  -7  13    4.77    0.75
   7  -8 -13    1.14    0.44
   6  -8 -13    0.57    0.43
   6   8 -13   -0.32    0.40
  -6  -8  13   -0.03    0.43
  -6   8  13    0.02    0.40
  -5   8  13    1.31    0.53
  -5  -8  13    1.32    0.48
   5   8 -13    1.42    0.46
   5  -8 -13    1.44    0.47
   4   8 -13    9.37    0.91
  -4  -8  13    9.82    0.81
  -4   8  13    9.14    0.96
  -4  -8  13    9.58    1.02
   4  -8 -13   10.43    0.94
  -3  -8  13    0.11    0.20
   3  -8 -13    1.15    0.40
  -3  -8  13   -0.19    0.33
   3  -8 -13    1.18    0.37
   3   8 -13    0.20    0.30
  -3   8  13    0.54    0.37
  -2  -8  13    0.16    0.34
  -2   8  13    0.73    0.37
   2  -8 -13    0.63    0.34
   2  -8 -13    0.62    0.30
  -2  -8  13    0.28    0.24
   2   8 -13    0.71    0.31
   1  -8 -13    3.69    0.59
  -1  -8  13    2.43    0.54
   1  -8 -13    3.51    0.48
  -1  -8  13    3.48    0.48
   1   8 -13    3.47    0.55
  -1   8  13    2.25    0.56
   0   8 -13    0.96    0.36
   0  -8 -13    0.63    0.26
   0   8  13    0.40    0.35
   0  -8 -13    0.56    0.37
   0  -8  13    0.14    0.23
   0  -8  13    0.07    0.32
   1   8  13    0.00    0.30
  -1  -8 -13    0.37    0.34
   1  -8  13   -0.06    0.22
  -1   8 -13    0.25    0.31
  -2   8 -13    5.57    0.73
  -2  -8 -13    8.09    0.86
   2  -8  13    5.33    0.65
  -2   8 -13    5.78    0.69
   2   8  13    6.78    0.80
   3  -8  13    4.77    0.62
  -3  -8 -13    4.57    0.67
   3   8  13    3.94    0.70
  -3   8 -13    5.05    0.70
   4  -8  13    0.37    0.32
  -4   8 -13    0.87    0.40
   4   8  13    0.47    0.42
  -4  -8 -13    0.52    0.39
  -5   8 -13    1.03    0.44
   5   8  13    1.64    0.57
   5  -8  13    1.69    0.46
  -5  -8 -13    1.61    0.49
   6  -8  13    1.44    0.43
  -6   8 -13    1.35    0.47
   6   8  13    1.16    0.64
   7   9 -13   -0.05    0.44
   6   9 -13    2.44    0.58
  -6   9  13    1.75    0.53
   6  -9 -13    1.33    0.54
  -6  -9  13    2.57    0.63
   5   9 -13    0.32    0.35
   5  -9 -13    0.24    0.38
  -5  -9  13    0.73    0.44
  -5   9  13    0.14    0.37
  -4  -9  13    4.97    0.78
   4   9 -13    5.73    0.75
   4  -9 -13    5.60    0.74
  -4   9  13    5.93    0.83
   3  -9 -13   -0.20    0.32
   3   9 -13   -0.03    0.30
  -3  -9  13   -0.14    0.34
   3  -9 -13    0.51    0.31
  -3  -9  13    0.17    0.23
  -3   9  13    0.11    0.35
  -2  -9  13    1.73    0.50
  -2   9  13    1.25    0.46
   2   9 -13    1.77    0.45
   2  -9 -13    2.39    0.52
   2  -9 -13    1.86    0.43
  -2  -9  13    1.57    0.36
   1   9 -13   15.81    1.32
   1  -9 -13   18.05    1.24
  -1   9  13   14.97    1.37
   1  -9 -13   18.36    1.39
  -1  -9  13   15.59    1.36
  -1  -9  13   17.51    1.24
   0   9 -13    7.11    0.78
   0  -9 -13    8.10    0.90
   0  -9  13    7.58    0.73
   0   9  13    8.05    0.91
   0  -9  13    6.64    0.82
  -1  -9 -13    0.39    0.36
   1  -9  13    0.36    0.27
  -1   9 -13    0.32    0.33
   1  -9  13    0.10    0.30
   1   9  13    0.45    0.39
   2   9  13    8.26    0.89
   2  -9  13    9.00    0.86
  -2   9 -13   11.47    0.97
  -2   9 -13    9.25    0.90
  -2  -9 -13   10.68    0.99
  -3   9 -13    0.00    0.32
   3   9  13    0.26    0.37
  -3  -9 -13   -0.39    0.30
   3  -9  13    0.09    0.27
   4   9  13    0.39    0.40
  -4   9 -13    0.55    0.39
  -4  -9 -13    0.59    0.39
   4  -9  13    0.54    0.34
  -5   9 -13    3.71    0.67
   5   9  13    4.35    0.78
   5  -9  13    3.67    0.61
  -5  -9 -13    2.97    0.64
   6  -9  13    2.47    0.60
  -6   9 -13    2.18    0.58
  -6  -9 -13    3.20    0.66
   7  10 -13    0.90    0.52
  -7 -10  13    0.33    0.62
  -6 -10  13    1.66    0.66
   6 -10 -13    2.64    0.64
  -6  10  13    2.39    0.60
   6  10 -13    3.64    0.63
  -5 -10  13    1.16    0.55
  -5  10  13    1.60    0.52
   5 -10 -13    1.27    0.49
   5  10 -13    2.15    0.49
   4 -10 -13   12.94    1.13
  -4 -10  13   12.24    1.21
  -4  10  13   12.10    1.17
   4  10 -13   12.42    1.15
   3 -10 -13    7.61    0.82
   3  10 -13    7.33    0.86
   3 -10 -13    7.43    0.86
  -3  10  13    6.61    0.87
  -3 -10  13    6.21    0.87
  -2  10  13   14.43    1.29
  -2 -10  13   15.22    1.15
   2  10 -13   14.75    1.26
  -2 -10  13   14.61    1.32
   2 -10 -13   15.60    1.33
   2 -10 -13   16.94    1.21
   1 -10 -13    0.05    0.35
  -1 -10  13    0.72    0.40
  -1  10  13    0.26    0.41
   1  10 -13    0.05    0.31
  -1 -10  13   -0.16    0.21
   0  10  13   -0.16    0.38
   0 -10  13   -0.03    0.23
   0 -10  13   -0.25    0.31
   0 -10 -13    0.46    0.39
   0  10 -13   -0.02    0.31
   1 -10  13    0.12    0.26
   1 -10  13    0.58    0.34
   1  10  13    0.32    0.37
  -1  10 -13    0.70    0.41
  -1 -10 -13    1.06    0.43
   2 -10  13    0.48    0.32
  -2 -10 -13    0.40    0.40
  -2  10 -13    0.89    0.41
   2  10  13    0.17    0.34
  -3  10 -13   -0.02    0.32
  -3 -10 -13    0.37    0.37
   3  10  13    0.18    0.36
   3 -10  13    0.47    0.32
   4  10  13    5.52    0.81
  -4 -10 -13    4.86    0.78
   4 -10  13    5.06    0.72
  -4  10 -13    5.35    0.79
   5 -10  13    0.25    0.36
  -5  10 -13    1.00    0.39
   5  10  13   -0.25    0.47
  -5 -10 -13    0.20    0.43
  -6 -10 -13    4.58    0.79
   6  11 -13    0.00    0.38
  -6 -11  13    1.00    0.60
   5 -11 -13    1.99    0.59
  -5  11  13    1.36    0.48
  -5 -11  13    1.25    0.59
   5  11 -13    2.19    0.56
  -4 -11  13    1.31    0.57
  -4  11  13    1.94    0.55
   4 -11 -13    1.70    0.51
   4  11 -13    1.35    0.51
  -3  11  13    0.71    0.35
  -3 -11  13    0.56    0.44
   3 -11 -13    0.70    0.38
   3  11 -13    1.03    0.46
   2 -11 -13   -0.15    0.27
  -2  11  13    0.41    0.37
   2 -11 -13    0.13    0.37
   2  11 -13    0.17    0.31
  -2 -11  13   -0.31    0.35
  -2 -11  13    0.14    0.25
  -1 -11  13    2.78    0.58
  -1 -11  13    2.15    0.44
   1 -11 -13    3.89    0.66
  -1  11  13    2.65    0.61
   1  11 -13    3.32    0.58
   0  11 -13    1.98    0.48
   0  11  13    1.85    0.54
   0 -11 -13    2.05    0.54
   0 -11  13    1.82    0.44
   0 -11  13    1.46    0.48
   1 -11  13    1.30    0.46
  -1  11 -13    1.03    0.48
  -1 -11 -13    1.23    0.45
   1 -11  13    0.89    0.35
   1  11  13    1.34    0.51
   2 -11  13    0.81    0.40
  -2  11 -13    0.85    0.42
  -2 -11 -13    1.38    0.50
   2  11  13    1.50    0.51
   2 -11  13    0.82    0.36
   3 -11  13    0.32    0.34
   3  11  13    1.15    0.45
  -3  11 -13    0.83    0.42
  -3 -11 -13    0.86    0.48
  -4 -11 -13    0.77    0.48
  -4  11 -13    0.71    0.38
   4 -11  13    0.21    0.39
   4  11  13    0.51    0.45
  -5  11 -13    0.30    0.42
   5 -11  13    0.40    0.38
  -5 -11 -13    0.51    0.52
   5  12 -13   -0.14    0.37
   5 -12 -13    0.63    0.50
  -5  12  13    0.65    0.48
  -5 -12  13    0.28    0.57
  -4  12  13    0.24    0.39
   4  12 -13    1.03    0.45
  -4 -12  13   -0.28    0.49
   4 -12 -13    0.39    0.41
   3  12 -13    1.28    0.46
  -3 -12  13   -0.35    0.39
   3 -12 -13    0.63    0.38
  -3  12  13    0.54    0.43
   2  12 -13    0.53    0.37
  -2  12  13    0.40    0.40
   2 -12 -13   -0.12    0.37
  -2 -12  13   -0.10    0.35
   1 -12 -13    0.47    0.39
  -1 -12  13    0.12    0.37
   1  12 -13    0.03    0.34
  -1  12  13   -0.06    0.39
  -1 -12  13   -0.08    0.23
   0 -12  13    0.33    0.31
   0 -12 -13    0.78    0.40
   0 -12  13    1.12    0.46
   0  12 -13    0.72    0.39
   0  12  13    0.08    0.42
  -1  12 -13    2.97    0.61
   1 -12  13    2.22    0.55
  -1 -12 -13    3.09    0.65
   1 -12  13    1.73    0.43
   1  12  13    2.93    0.63
  -2  12 -13    0.87    0.47
   2  12  13    1.03    0.47
  -2 -12 -13    0.41    0.41
   2 -12  13    0.72    0.37
   3  12  13    0.13    0.41
  -3  12 -13    0.51    0.37
   3 -12  13    0.15    0.36
  -3 -12 -13    0.88    0.52
   4  12  13    0.93    0.49
   4 -12  13    0.84    0.44
  -4 -12 -13    1.29    0.59
  -4  12 -13    1.06    0.48
  -4 -13  13   -0.46    0.53
   4  13 -13    0.89    0.42
  -4  13  13    0.44    0.42
   4 -13 -13    0.29    0.52
  -3  13  13    1.82    0.55
   3  13 -13    2.00    0.55
  -3 -13  13    2.12    0.58
  -2  13  13    0.29    0.38
  -2 -13  13    0.53    0.47
   2  13 -13    0.72    0.39
   2 -13 -13    0.76    0.45
   1  13 -13    4.17    0.73
  -1  13  13    6.53    0.90
   1 -13 -13    5.96    0.84
  -1 -13  13    4.16    0.76
   0  13  13    0.71    0.49
   0 -13  13    0.90    0.36
   0 -13 -13    1.02    0.49
   0  13 -13    1.12    0.44
   0 -13  13    1.17    0.47
   1  13  13    0.48    0.43
   1 -13  13    0.72    0.35
  -1 -13 -13    0.67    0.42
   1 -13  13    1.28    0.46
  -1  13 -13    0.88    0.46
  -2 -13 -13    5.27    0.83
   2  13  13    4.87    0.77
   2 -13  13    3.69    0.66
  -2  13 -13    3.92    0.73
  -3 -13 -13   -0.27    0.49
  -3  13 -13    0.20    0.35
   3 -13  13    0.30    0.37
   3  13  13    0.10    0.40
  -3 -14  13    0.82    0.52
  -3  14  13    0.92    0.53
   3  14 -13    1.82    0.52
   2  14 -13    4.31    0.69
  -2 -14  13    3.74    0.74
   2 -14 -13    2.86    0.67
  -2  14  13    2.81    0.64
   1  14 -13    0.58    0.38
  -1 -14  13    0.23    0.43
   1 -14 -13    0.55    0.46
  -1  14  13    0.16    0.40
   0 -14  13    3.02    0.63
   0 -14 -13    3.55    0.72
   0  14 -13    2.94    0.63
   0 -14  13    2.36    0.51
   0  14  13    2.81    0.67
   1 -14  13    6.12    0.85
  -1 -14 -13    6.40    0.94
   1 -14  13    5.28    0.76
   1  14  13    6.79    0.91
  -1  14 -13    6.46    0.88
  -2  14 -13    0.52    0.48
   2  14  13    0.17    0.43
  -2 -14 -13    1.16    0.53
   2 -14  13   -0.10    0.37
   1  15 -13    0.31    0.45
   1 -15 -13    0.70    0.52
  -1  15  13    0.26    0.47
  -1 -15  13    0.01    0.45
   0  15 -13    0.69    0.51
   0  15  13   -0.44    0.47
   0 -15  13    0.70    0.45
   0 -15 -13    0.41    0.45
   1 -15  13    0.41    0.42
   8   0 -14    0.42    0.37
  -8   0  14   -0.76    0.64
  -7   0  14    4.00    0.77
   7   0 -14    4.56    0.66
   6   0 -14    2.78    0.56
  -6   0  14    3.27    0.61
   5   0 -14    2.91    0.49
  -5   0  14    3.34    0.57
  -5   0  14    3.13    0.49
  -4   0  14    0.17    0.23
   4   0 -14   -0.12    0.22
  -4   0  14    0.10    0.28
  -3   0  14   14.93    1.07
   3   0 -14   15.19    1.13
  -3   0  14   12.81    1.09
  -2   0  14    0.21    0.28
  -2   0  14    0.79    0.26
   2   0 -14    0.77    0.27
  -1   0  14  107.90    6.00
   1   0 -14  101.42    6.39
  -1   0  14  101.46    6.51
   0   0 -14    8.56    0.78
   0   0  14    8.47    0.69
   1   0  14   42.55    2.56
   1   0  14   40.73    2.73
  -1   0 -14   42.26    2.75
  -2   0 -14    9.14    0.78
  -2   0 -14    8.74    0.80
   2   0  14    9.09    0.75
   2   0  14    9.36    0.82
  -3   0 -14   50.09    3.33
   3   0  14   48.52    3.01
  -3   0 -14   51.31    3.23
   3   0  14   49.35    3.29
  -4   0 -14    3.16    0.49
   4   0  14    2.92    0.45
   4   0  14    4.14    0.60
  -4   0 -14    4.76    0.64
   5   0  14    0.54    0.37
  -5   0 -14    1.00    0.39
   6   0  14   -0.06    0.38
  -6   0 -14    0.06    0.41
   7   0  14    7.04    1.03
  -7   0 -14    9.47    1.11
   8   1 -14    0.49    0.40
   8  -1 -14    0.50    0.34
  -8  -1  14   -0.93    0.68
  -8   1  14   -0.67    0.70
  -7   1  14    4.71    0.80
   7  -1 -14    5.69    0.74
   7   1 -14    3.83    0.63
  -7  -1  14    7.22    0.98
  -6   1  14    1.30    0.51
   6  -1 -14    2.46    0.52
  -6  -1  14    1.47    0.50
   6   1 -14    1.72    0.50
   5  -1 -14    1.27    0.31
   5   1 -14    1.79    0.39
  -5  -1  14    0.94    0.40
  -5  -1  14    0.99    0.32
  -5   1  14    0.93    0.42
   4   1 -14    5.72    0.65
  -4   1  14    5.26    0.61
  -4  -1  14    5.48    0.61
   4  -1 -14    4.94    0.59
  -4   1  14    5.57    0.66
  -4  -1  14    5.33    0.65
   3   1 -14    2.83    0.49
   3  -1 -14    3.34    0.46
  -3   1  14    3.63    0.52
  -3  -1  14    3.13    0.45
  -3  -1  14    2.83    0.46
  -3   1  14    3.40    0.47
  -2   1  14    3.33    0.45
   2  -1 -14    3.51    0.48
  -2   1  14    4.28    0.54
   2   1 -14    3.72    0.52
  -2  -1  14    3.42    0.45
  -1   1  14   17.67    1.18
  -1   1  14   18.93    1.16
  -1  -1  14   13.79    1.11
   1  -1 -14   17.22    1.26
   1   1 -14   12.67    1.18
   0   1 -14    0.00    0.22
   0   1  14    0.06    0.21
   0  -1 -14    0.29    0.26
   0  -1  14    0.29    0.20
   0   1  14    0.43    0.20
   1   1  14    7.83    0.62
   1   1  14    6.43    0.56
  -1   1 -14    5.11    0.63
   1  -1  14    5.22    0.56
  -1   1 -14    4.91    0.53
  -1  -1 -14    7.13    0.67
  -2   1 -14   10.99    0.90
  -2   1 -14   11.76    0.95
   2   1  14   10.35    0.84
  -2  -1 -14   10.80    0.95
   2  -1  14   10.68    0.86
   2   1  14   12.99    0.98
  -3   1 -14   50.49    3.20
   3   1  14   48.45    2.99
  -3  -1 -14   50.84    3.22
   3  -1  14   46.63    3.00
   3   1  14   53.77    3.30
  -3   1 -14   43.77    3.27
  -3  -1 -14   52.65    3.32
  -4   1 -14    0.41    0.30
   4   1  14    0.15    0.32
  -4  -1 -14    0.47    0.27
  -4   1 -14    0.13    0.26
   4   1  14    0.29    0.23
  -4  -1 -14    0.07    0.31
   4  -1  14   -0.10    0.19
  -5   1 -14    8.26    0.94
   5   1  14    7.93    0.91
  -5  -1 -14    8.59    0.89
   5  -1  14    7.41    0.74
   6   1  14   -0.26    0.35
  -6  -1 -14    0.79    0.47
  -6   1 -14    0.52    0.36
  -7  -1 -14    3.03    0.68
   7   1  14    2.02    0.64
  -7   1 -14    1.99    0.59
   8  -2 -14   -0.03    0.34
  -8  -2  14    0.02    0.79
  -8   2  14    0.25    0.64
   7  -2 -14    0.31    0.34
  -7   2  14   -0.39    0.45
  -7  -2  14    0.64    0.59
   7   2 -14   -0.10    0.28
  -6  -2  14    0.49    0.44
   6  -2 -14    0.96    0.36
  -6   2  14    0.20    0.37
   5   2 -14    0.32    0.28
  -5   2  14    0.13    0.36
   5  -2 -14    0.19    0.30
  -5  -2  14    0.23    0.25
  -5  -2  14    0.06    0.36
  -4   2  14    9.86    0.86
   4   2 -14   10.38    0.93
  -4  -2  14   10.49    0.85
  -4   2  14    9.66    0.91
  -4  -2  14   11.45    0.92
   4  -2 -14    9.48    0.87
  -3   2  14    0.99    0.36
  -3  -2  14    1.11    0.30
  -3   2  14    1.25    0.33
   3   2 -14    1.07    0.34
   3  -2 -14    1.25    0.32
  -2   2  14   13.35    1.14
  -2   2  14   16.00    1.11
   2  -2 -14   14.59    1.16
   2   2 -14   16.01    1.19
  -2  -2  14   15.17    1.09
  -1   2  14    0.38    0.26
   1  -2 -14    0.73    0.29
  -1  -2  14    0.48    0.21
   1   2 -14    0.26    0.25
  -1   2  14    0.29    0.22
   0   2  14    6.34    0.56
   0  -2 -14    5.27    0.62
   0  -2  14    5.77    0.56
   0   2 -14    6.01    0.54
   0   2  14    5.43    0.58
   0   2 -14    6.13    0.65
  -1   2 -14    1.68    0.36
  -1   2 -14    1.35    0.32
   1   2  14    1.32    0.33
   1  -2  14    1.63    0.32
  -1  -2 -14    1.35    0.36
   1   2  14    1.11    0.27
  -2   2 -14   14.92    1.15
  -2   2 -14   15.44    1.18
   2   2  14   13.54    1.04
   2   2  14   15.99    1.22
   2  -2  14   15.20    1.10
  -2  -2 -14   16.17    1.21
   3   2  14    2.34    0.35
  -3   2 -14    2.02    0.43
  -3   2 -14    1.80    0.38
   3  -2  14    1.87    0.37
   4   2  14    2.84    0.54
  -4   2 -14    2.68    0.51
   4  -2  14    2.45    0.42
  -4  -2 -14    2.38    0.50
  -4  -2 -14    2.52    0.46
  -5  -2 -14    1.29    0.45
   5  -2  14    0.19    0.29
   5   2  14   -0.03    0.31
  -5   2 -14    0.96    0.42
  -6  -2 -14    1.63    0.53
  -6   2 -14    1.11    0.46
   6   2  14   -0.26    0.40
  -7   2 -14    0.68    0.45
   7   2  14   -0.28    0.49
  -7  -2 -14    1.38    0.54
   8  -3 -14    1.00    0.46
   7  -3 -14    0.51    0.36
  -7   3  14    0.01    0.48
   7   3 -14    0.41    0.34
  -6   3  14    2.05    0.56
  -6  -3  14    3.00    0.47
   6  -3 -14    3.59    0.61
   5   3 -14    0.67    0.32
  -5   3  14    0.33    0.34
  -5  -3  14    0.74    0.30
   5  -3 -14    0.66    0.35
   4  -3 -14    3.64    0.49
  -4   3  14    2.90    0.48
  -4   3  14    3.09    0.54
   4   3 -14    3.98    0.58
  -4  -3  14    3.04    0.46
  -3   3  14    2.62    0.49
   3  -3 -14    2.38    0.42
  -3   3  14    1.57    0.37
  -3  -3  14    2.42    0.39
   3   3 -14    1.84    0.44
  -2  -3  14   21.10    1.44
   2   3 -14   22.07    1.58
   2  -3 -14   20.64    1.53
  -2   3  14   21.42    1.55
  -2   3  14   21.22    1.46
   1   3 -14    2.69    0.40
  -1  -3  14    3.29    0.42
   1   3 -14    2.51    0.47
  -1   3  14    2.92    0.42
   1  -3 -14    2.40    0.45
  -1   3  14    3.65    0.51
   0   3 -14   15.44    1.15
   0   3 -14   16.64    1.22
   0  -3  14   15.98    1.11
   0   3  14   13.60    1.07
   0   3  14   15.47    1.18
   0  -3 -14   15.93    1.21
   1  -3  14    2.52    0.39
  -1   3 -14    2.77    0.41
  -1   3 -14    2.50    0.44
  -1  -3 -14    2.70    0.48
   1   3  14    2.87    0.46
   1   3  14    2.76    0.38
   2   3  14    6.20    0.57
   2   3  14    7.60    0.74
  -2   3 -14    6.85    0.67
  -2   3 -14    6.54    0.64
  -2  -3 -14    5.52    0.68
   2  -3  14    5.98    0.63
  -3   3 -14   -0.16    0.22
   3   3  14    0.06    0.33
  -3  -3 -14    0.21    0.28
  -3   3 -14   -0.10    0.25
   3  -3  14    0.08    0.19
   3   3  14   -0.02    0.16
   4   3  14   -0.02    0.31
  -4  -3 -14   -0.05    0.26
   4  -3  14   -0.16    0.22
  -4   3 -14    0.29    0.31
  -5  -3 -14    4.49    0.69
   5  -3  14    3.93    0.58
   5   3  14    3.22    0.62
  -5   3 -14    5.54    0.74
  -6  -3 -14    2.06    0.55
   6  -3  14    2.65    0.48
  -6   3 -14    2.37    0.60
   6   3  14    2.29    0.60
  -7  -3 -14    1.48    0.53
   7   3  14    0.64    0.60
  -7   3 -14    1.09    0.50
   8  -4 -14    0.05    0.37
   7  -4 -14    4.55    0.71
  -7   4  14    2.89    0.73
   6   4 -14    0.15    0.36
  -6  -4  14    0.70    0.30
  -6   4  14   -0.29    0.34
   6  -4 -14    1.09    0.39
   5  -4 -14   10.65    0.99
  -5   4  14    9.62    0.98
   5   4 -14   12.48    1.04
  -5  -4  14   10.55    0.89
  -4   4  14   11.83    1.07
   4  -4 -14   14.73    1.13
   4  -4 -14   12.46    1.03
  -4  -4  14   12.46    0.98
   4   4 -14   12.54    1.11
   3  -4 -14    0.30    0.26
  -3   4  14    0.23    0.24
   3   4 -14    0.35    0.28
  -3  -4  14    0.33    0.22
  -3   4  14   -0.40    0.28
  -2  -4  14    1.96    0.36
   2   4 -14    0.89    0.34
  -2   4  14    0.93    0.30
   2  -4 -14    1.58    0.38
  -2   4  14    1.48    0.40
   2   4 -14    1.41    0.32
   1   4 -14    7.63    0.80
   1  -4 -14    9.59    0.82
  -1   4  14    8.07    0.77
   1   4 -14    8.29    0.72
  -1  -4  14    7.72    0.70
  -1   4  14    8.82    0.72
   0   4 -14    1.74    0.41
   0  -4  14    2.12    0.37
   0   4  14    2.16    0.42
   0   4 -14    1.74    0.36
   0   4  14    1.85    0.34
   0  -4 -14    1.97    0.42
   1   4  14    2.00    0.33
  -1   4 -14    2.63    0.40
   1   4  14    1.99    0.43
   1  -4  14    2.13    0.37
  -1   4 -14    2.21    0.43
  -1  -4 -14    1.89    0.42
   2   4  14   23.51    1.53
  -2   4 -14   24.05    1.73
   2   4  14   23.76    1.75
  -2   4 -14   24.52    1.69
  -2  -4 -14   23.92    1.73
   2  -4  14   22.67    1.59
  -3  -4 -14    3.74    0.55
  -3   4 -14    3.92    0.57
  -3   4 -14    4.10    0.53
   3  -4  14    3.74    0.50
   3   4  14    2.87    0.58
  -4  -4 -14   11.37    0.95
   4   4  14    9.90    0.97
  -4   4 -14    9.38    0.96
   4  -4  14   10.40    0.89
  -5  -4 -14    2.07    0.47
   5   4  14    1.98    0.55
   5  -4  14    1.73    0.43
  -5   4 -14    2.70    0.57
   6   4  14    3.32    0.72
   6  -4  14    4.84    0.67
  -6  -4 -14    5.31    0.77
  -6   4 -14    5.46    0.80
  -7   4 -14    4.14    0.77
   7   4  14    5.17    0.94
  -7  -4 -14    5.87    0.84
  -7   5  14   -0.19    0.50
   7  -5 -14    0.85    0.42
   6  -5 -14    0.61    0.37
  -6   5  14   -0.14    0.39
   6   5 -14    0.18    0.32
  -6  -5  14    0.04    0.25
  -5   5  14   -0.08    0.33
  -5  -5  14    0.39    0.25
   5  -5 -14    0.59    0.35
   5   5 -14    0.22    0.33
  -4  -5  14    1.29    0.35
  -4   5  14    2.62    0.53
   4  -5 -14    2.21    0.42
   4  -5 -14    1.32    0.42
   3   5 -14    4.04    0.50
  -3  -5  14    3.06    0.45
   3  -5 -14    3.80    0.53
   3   5 -14    3.39    0.57
  -3   5  14    3.47    0.59
   2  -5 -14    6.89    0.72
   2   5 -14    8.40    0.69
  -2  -5  14    6.72    0.65
   2   5 -14    6.53    0.79
  -2   5  14    6.70    0.72
  -2   5  14    7.21    0.72
   1   5 -14    7.59    0.73
  -1   5  14    8.64    0.82
  -1  -5  14    8.51    0.73
   1  -5 -14    7.35    0.77
   1   5 -14    8.46    0.82
  -1   5  14    8.94    0.74
   0   5 -14    2.24    0.41
   0  -5 -14    1.22    0.40
   0   5  14    1.94    0.34
   0  -5  14    2.22    0.38
   0   5 -14    1.53    0.40
   0   5  14    1.93    0.44
   1   5  14    0.31    0.20
  -1  -5 -14    0.18    0.27
  -1   5 -14    0.46    0.26
   1  -5  14    0.20    0.22
  -1   5 -14    0.25    0.26
   1   5  14   -0.29    0.28
  -2   5 -14    0.64    0.31
  -2  -5 -14    0.65    0.33
   2  -5  14    1.10    0.32
   2   5  14    0.70    0.36
  -2   5 -14    0.46    0.31
   3  -5  14   10.62    0.91
   3   5  14   11.40    1.03
  -3  -5 -14   10.84    0.98
  -3   5 -14   10.98    0.95
  -3   5 -14   10.90    0.99
  -4   5 -14   -0.12    0.31
  -4  -5 -14    0.37    0.29
   4   5  14    0.01    0.32
   4  -5  14   -0.07    0.23
  -5  -5 -14    5.15    0.69
  -5   5 -14    5.89    0.81
   5  -5  14    5.52    0.69
   5   5  14    6.54    0.85
   6   5  14    0.16    0.45
  -6   5 -14    0.44    0.41
   6  -5  14    0.78    0.38
  -7   5 -14    0.53    0.47
   7  -5  14    0.69    0.40
  -7   6  14    0.10    0.59
   7  -6 -14    0.19    0.36
   6  -6 -14    0.87    0.38
  -6   6  14    0.06    0.43
   5  -6 -14    0.29    0.32
  -5   6  14   -0.16    0.33
  -5  -6  14    0.34    0.25
  -5  -6  14   -0.15    0.34
  -4   6  14    1.90    0.50
   4  -6 -14    2.90    0.53
  -4  -6  14    2.90    0.43
   4   6 -14    4.00    0.54
  -4  -6  14    2.56    0.57
   4  -6 -14    2.14    0.44
   3  -6 -14    0.01    0.29
  -3  -6  14    0.33    0.37
   3   6 -14    0.25    0.28
   3  -6 -14    0.90    0.32
  -3  -6  14    0.52    0.26
  -3   6  14    0.89    0.38
  -2   6  14    4.85    0.64
  -2   6  14    4.09    0.54
   2   6 -14    5.14    0.59
  -2  -6  14    4.81    0.54
   2  -6 -14    4.37    0.59
   1   6 -14    1.90    0.40
  -1   6  14    1.08    0.33
   1   6 -14    1.22    0.40
  -1   6  14    1.04    0.42
  -1  -6  14    1.88    0.36
   1  -6 -14    1.22    0.38
   0  -6 -14    2.92    0.53
   0   6  14    2.93    0.42
   0   6  14    3.06    0.54
   0   6 -14    3.51    0.51
   0  -6  14    3.38    0.46
   0   6 -14    2.66    0.51
  -1   6 -14    1.66    0.40
   1   6  14    1.52    0.31
  -1  -6 -14    1.31    0.41
   1   6  14    1.33    0.43
  -1   6 -14    1.01    0.36
   1  -6  14    1.34    0.35
   2  -6  14    2.97    0.46
  -2   6 -14    3.15    0.54
  -2   6 -14    2.85    0.48
  -2  -6 -14    2.62    0.52
   2   6  14    2.63    0.56
  -3   6 -14   14.38    1.20
  -3  -6 -14   14.52    1.19
  -3   6 -14   14.50    1.14
   3   6  14   13.74    1.21
   3  -6  14   12.28    1.07
   4   6  14    6.11    0.83
  -4  -6 -14    6.38    0.79
   4  -6  14    7.09    0.75
  -4   6 -14    6.56    0.83
   5  -6  14    0.07    0.30
   5   6  14    0.15    0.43
  -5   6 -14    0.30    0.38
  -5  -6 -14    0.40    0.33
  -6   6 -14    1.48    0.49
   6  -6  14    0.75    0.37
   6   6  14    1.02    0.60
   7  -6  14    0.78    0.42
  -7   7  14    0.55    0.58
   7  -7 -14    1.27    0.47
  -6  -7  14    1.24    0.52
   6  -7 -14    1.35    0.53
  -6   7  14    0.64    0.51
  -5   7  14    1.57    0.52
  -5  -7  14    1.84    0.51
   5  -7 -14    3.30    0.58
  -4  -7  14    2.08    0.57
   4  -7 -14    1.69    0.47
  -4   7  14    2.39    0.54
  -4  -7  14    1.75    0.38
   4   7 -14    3.59    0.55
  -3   7  14    8.49    0.84
  -3  -7  14    7.89    0.90
   3  -7 -14    6.90    0.79
   3   7 -14    6.78    0.74
  -3  -7  14    7.77    0.73
   3  -7 -14   10.11    0.84
  -2   7  14    0.49    0.35
  -2  -7  14    0.40    0.26
   2  -7 -14    0.53    0.30
   2   7 -14    0.11    0.27
  -2  -7  14    0.04    0.34
   2  -7 -14   -0.04    0.22
  -1   7  14    1.16    0.45
  -1  -7  14    0.63    0.37
  -1  -7  14    0.83    0.31
   1  -7 -14    1.72    0.44
  -1   7  14    1.99    0.37
   1   7 -14    1.29    0.37
   0   7 -14   10.44    0.91
   0  -7  14    8.89    0.83
   0  -7 -14    9.46    0.95
   0   7  14   11.19    0.97
   0   7  14   10.48    0.82
   0   7 -14    9.46    0.93
  -1   7 -14    2.52    0.48
   1   7  14    3.64    0.61
  -1  -7 -14    2.55    0.53
   1  -7  14    2.21    0.43
  -1   7 -14    2.36    0.49
  -2   7 -14   10.44    0.95
  -2  -7 -14   11.09    1.03
   2   7  14    9.83    0.96
   2  -7  14   11.24    0.93
  -2   7 -14   11.61    1.00
  -3  -7 -14    0.46    0.35
   3  -7  14    0.43    0.29
   3   7  14    0.62    0.38
  -3   7 -14    0.96    0.41
  -4   7 -14    2.45    0.53
   4  -7  14    1.97    0.45
  -4  -7 -14    1.96    0.48
   4   7  14    2.08    0.55
   5   7  14    9.51    1.10
   5  -7  14    9.07    0.96
  -5  -7 -14    8.93    0.93
  -5   7 -14    9.96    1.09
  -6   7 -14    2.31    0.58
   6  -7  14    2.30    0.54
   6   7  14    3.26    0.81
  -6  -8  14    0.32    0.45
  -6   8  14   -0.36    0.46
   6  -8 -14   -0.55    0.37
   5  -8 -14    0.43    0.37
  -5   8  14    0.43    0.46
   5   8 -14    0.77    0.41
  -5  -8  14    0.59    0.42
   4   8 -14   23.29    1.67
  -4  -8  14   21.26    1.48
  -4   8  14   19.24    1.67
  -4  -8  14   21.35    1.70
   4  -8 -14   21.45    1.60
   3  -8 -14    1.09    0.40
  -3  -8  14    1.54    0.36
   3   8 -14    1.63    0.43
  -3  -8  14    1.18    0.45
   3  -8 -14    1.79    0.49
  -3   8  14    1.86    0.50
   2  -8 -14    0.01    0.27
   2  -8 -14   -0.10    0.29
  -2  -8  14   -0.02    0.33
   2   8 -14    0.09    0.28
  -2   8  14   -0.25    0.31
  -2  -8  14    0.07    0.24
   1  -8 -14   14.96    1.27
   1  -8 -14   14.61    1.15
   1   8 -14   15.74    1.25
  -1  -8  14   14.80    1.28
  -1  -8  14   16.07    1.17
  -1   8  14   16.11    1.32
   0  -8 -14    0.04    0.31
   0   8 -14    0.43    0.32
   0  -8  14   -0.14    0.29
   0  -8  14    0.18    0.23
   0   8  14    0.17    0.32
   1   8  14    5.22    0.70
  -1   8 -14    3.40    0.56
  -1   8 -14    2.85    0.53
  -1  -8 -14    2.04    0.55
   1  -8  14    3.59    0.53
  -2   8 -14    2.49    0.49
   2  -8  14    2.33    0.44
  -2   8 -14    2.74    0.53
   2   8  14    1.50    0.45
  -2  -8 -14    2.21    0.54
   3  -8  14    2.64    0.51
  -3   8 -14    3.20    0.60
  -3  -8 -14    3.63    0.63
   3   8  14    3.89    0.65
  -4   8 -14    5.38    0.79
   4   8  14    7.36    0.91
  -4  -8 -14    6.03    0.79
   4  -8  14    6.04    0.76
   5   8  14    0.59    0.52
  -5   8 -14    0.41    0.37
   5  -8  14    0.42    0.34
  -5  -8 -14    0.89    0.42
  -6   8 -14    0.77    0.41
   6  -8  14    0.65    0.38
   6   8  14   -0.07    0.56
   6  -9 -14    1.20    0.52
  -6   9  14    0.04    0.41
  -6  -9  14    0.89    0.57
  -5   9  14    0.57    0.41
  -5  -9  14    0.55    0.45
   5  -9 -14   -0.24    0.34
   5   9 -14    0.63    0.35
   4   9 -14    2.83    0.56
  -4  -9  14    1.61    0.54
  -4   9  14    2.01    0.58
   4  -9 -14    1.63    0.48
   3   9 -14    0.46    0.35
  -3   9  14    0.01    0.38
  -3  -9  14    0.13    0.38
  -3  -9  14    0.52    0.26
   3  -9 -14    0.56    0.37
   3  -9 -14    0.21    0.29
   2   9 -14    6.94    0.77
  -2  -9  14    6.92    0.69
  -2  -9  14    6.37    0.83
  -2   9  14    5.59    0.80
   2  -9 -14    6.08    0.71
   2  -9 -14    7.26    0.83
   1   9 -14    0.25    0.34
  -1  -9  14    0.07    0.25
  -1  -9  14    0.30    0.35
   1  -9 -14    0.67    0.27
   1  -9 -14    0.19    0.34
  -1   9  14    0.10    0.36
   0  -9  14    3.81    0.64
   0   9  14    5.05    0.74
   0  -9  14    3.50    0.54
   0  -9 -14    5.15    0.71
   0   9 -14    5.09    0.69
   1   9  14    0.76    0.44
  -1  -9 -14    0.12    0.36
  -1   9 -14    0.45    0.36
   1  -9  14    0.43    0.29
  -2   9 -14    0.26    0.32
  -2   9 -14    0.48    0.40
   2  -9  14    0.74    0.31
   2   9  14    0.14    0.32
  -2  -9 -14    0.69    0.40
  -3   9 -14    6.01    0.80
   3   9  14    5.78    0.83
   3  -9  14    5.76    0.71
  -3  -9 -14    6.61    0.82
  -4  -9 -14   -0.49    0.33
   4   9  14    0.00    0.46
   4  -9  14    0.35    0.31
  -4   9 -14    0.54    0.37
   5   9  14    0.55    0.57
  -5  -9 -14    0.38    0.46
   5  -9  14   -0.21    0.28
  -5   9 -14   -0.05    0.31
  -6 -10  14   -0.04    0.50
   6  10 -14    1.63    0.50
   6 -10 -14   -0.36    0.45
  -5  10  14    1.02    0.43
   5 -10 -14    0.31    0.40
   5  10 -14    0.35    0.42
  -5 -10  14    0.17    0.49
  -4  10  14    0.51    0.42
   4  10 -14    1.23    0.46
   4 -10 -14   -0.20    0.36
  -4 -10  14    0.76    0.50
  -3 -10  14    1.03    0.34
   3 -10 -14    1.85    0.54
   3  10 -14    1.32    0.45
   3 -10 -14    1.93    0.48
  -3 -10  14    1.09    0.51
  -3  10  14    1.53    0.49
   2  10 -14    4.86    0.66
   2 -10 -14    4.14    0.58
  -2  10  14    3.68    0.66
   2 -10 -14    4.43    0.70
  -2 -10  14    2.97    0.65
  -2 -10  14    3.76    0.54
  -1 -10  14    7.05    0.87
  -1 -10  14    7.01    0.75
  -1  10  14    7.91    0.94
   1  10 -14    6.05    0.83
   1 -10 -14    8.18    0.94
   0 -10  14    0.03    0.36
   0  10 -14   -0.11    0.33
   0  10  14   -0.39    0.32
   0 -10 -14   -0.31    0.31
   0 -10  14    0.52    0.29
  -1  10 -14    2.04    0.51
   1 -10  14    1.75    0.44
  -1 -10 -14    2.62    0.57
   1  10  14    2.96    0.61
   1 -10  14    1.99    0.50
   2  10  14    1.65    0.53
   2 -10  14    1.20    0.41
  -2  10 -14    1.48    0.46
  -2  10 -14    1.22    0.43
  -2 -10 -14    1.33    0.50
   3 -10  14    0.40    0.32
  -3  10 -14   -0.19    0.30
   3  10  14   -0.23    0.37
  -3 -10 -14   -0.12    0.39
  -4  10 -14    1.18    0.44
  -4 -10 -14    1.64    0.54
   4  10  14    0.81    0.55
   4 -10  14    1.28    0.42
   5 -10  14    0.80    0.41
   5  10  14    0.57    0.58
  -5 -10 -14    0.53    0.49
  -5  10 -14    0.35    0.39
  -6 -10 -14    1.17    0.63
   6  11 -14    1.74    0.52
  -5 -11  14    0.78    0.56
   5 -11 -14    0.82    0.51
  -5  11  14    1.82    0.52
   5  11 -14    1.55    0.50
  -4  11  14    2.68    0.61
  -4 -11  14    2.92    0.70
   4 -11 -14    3.66    0.66
   4  11 -14    2.86    0.58
   3 -11 -14    0.16    0.29
  -3 -11  14    0.22    0.40
  -3  11  14    0.51    0.41
   3  11 -14    0.45    0.38
  -2 -11  14    0.57    0.39
  -2 -11  14    0.16    0.23
   2 -11 -14    0.03    0.37
  -2  11  14    0.39    0.39
   2 -11 -14    0.47    0.34
   2  11 -14    0.13    0.37
   1 -11 -14    0.37    0.39
   1  11 -14    1.02    0.44
  -1  11  14    0.61    0.46
  -1 -11  14    0.33    0.39
  -1 -11  14    0.77    0.34
   0  11 -14    3.72    0.64
   0 -11  14    4.13    0.66
   0 -11 -14    4.16    0.70
   0 -11  14    3.37    0.56
   0  11  14    4.69    0.75
   1  11  14    4.78    0.75
   1 -11  14    3.29    0.62
  -1 -11 -14    4.85    0.77
  -1  11 -14    5.24    0.73
   1 -11  14    4.02    0.59
  -2 -11 -14    8.52    1.01
  -2  11 -14    8.68    0.98
   2 -11  14    7.12    0.84
   2  11  14    8.54    0.99
  -2  11 -14    5.93    0.80
   3 -11  14    0.50    0.35
   3  11  14    0.47    0.39
  -3 -11 -14    0.96    0.51
  -3  11 -14    0.74    0.43
  -4 -11 -14    1.29    0.57
  -4  11 -14    1.33    0.51
   4  11  14    1.62    0.55
   4 -11  14    0.81    0.49
  -5 -11 -14    0.67    0.56
   5  12 -14    1.20    0.46
   5 -12 -14    0.29    0.54
   4 -12 -14    1.02    0.51
  -4  12  14    1.78    0.53
  -4 -12  14    0.37    0.55
   4  12 -14    0.99    0.43
  -3  12  14    1.22    0.52
  -3 -12  14    0.99    0.45
   3 -12 -14    0.81    0.46
   3  12 -14    1.56    0.44
   2  12 -14    5.13    0.77
   2 -12 -14    6.33    0.85
  -2  12  14    7.47    0.92
  -2 -12  14    5.68    0.86
  -1 -12  14    7.13    0.89
   1  12 -14    6.36    0.84
  -1  12  14    5.63    0.86
  -1 -12  14    6.41    0.72
   1 -12 -14    7.63    0.92
   0  12 -14    0.50    0.41
   0 -12  14    0.25    0.38
   0 -12  14    0.23    0.31
   0 -12 -14    0.60    0.41
   0  12  14   -0.53    0.32
  -1 -12 -14    4.35    0.74
  -1  12 -14    3.83    0.67
   1 -12  14    2.45    0.57
   1 -12  14    2.09    0.50
   1  12  14    2.62    0.63
   2 -12  14   11.94    1.09
  -2 -12 -14   13.73    1.25
   2  12  14   10.88    1.14
  -2  12 -14   10.58    1.13
   3  12  14    1.07    0.46
   3 -12  14    2.00    0.55
  -3 -12 -14    2.06    0.66
  -3  12 -14    1.59    0.50
  -4  12 -14    0.46    0.46
  -4 -12 -14    1.53    0.64
   4 -13 -14    0.84    0.57
   4  13 -14    0.98    0.44
  -3 -13  14    1.30    0.52
  -3  13  14    0.81    0.51
   3  13 -14    1.40    0.47
  -2  13  14    0.70    0.44
   2  13 -14    1.21    0.47
  -2 -13  14    0.68    0.44
   2 -13 -14   -0.17    0.41
  -1  13  14    1.03    0.52
   1  13 -14    1.94    0.50
   1 -13 -14    1.51    0.50
  -1 -13  14    1.89    0.54
   0  13  14    1.19    0.57
   0  13 -14    2.37    0.55
   0 -13  14    1.29    0.46
   0 -13  14    0.76    0.38
   0 -13 -14    2.73    0.61
  -1  13 -14    0.28    0.39
   1 -13  14    0.01    0.38
   1  13  14    0.19    0.41
  -1 -13 -14    0.53    0.44
   1 -13  14   -0.18    0.31
  -2  13 -14    3.17    0.68
   2  13  14    3.44    0.68
   2 -13  14    2.89    0.63
  -2 -13 -14    4.13    0.75
   3 -13  14    0.60    0.46
  -3  13 -14    0.77    0.49
  -3 -13 -14    0.76    0.58
   3  14 -14    1.03    0.46
   2  14 -14    0.07    0.39
   2 -14 -14    0.52    0.48
  -2  14  14    0.63    0.48
  -2 -14  14    0.84    0.52
   1  14 -14    0.59    0.40
  -1  14  14   -0.08    0.43
   1 -14 -14    1.82    0.54
  -1 -14  14    1.07    0.51
   0 -14  14    0.50    0.38
   0  14 -14    0.70    0.42
   0 -14 -14    1.12    0.56
   0 -14  14    1.79    0.53
   0  14  14    0.91    0.52
  -1  14 -14    1.02    0.50
  -1 -14 -14    0.94    0.50
   1 -14  14   -0.18    0.33
   1  14  14    0.47    0.53
   1 -14  14    0.49    0.45
   2 -14  14    0.05    0.35
   1 -15 -14    2.60    0.68
   0 -15  14    2.01    0.62
   1 -15  14    0.86    0.48
   8   0 -15    0.35    0.32
  -8   0  15    0.27    0.77
   7   0 -15    1.30    0.44
  -7   0  15    0.31    0.47
   6   0 -15   -0.06    0.34
  -6   0  15   -0.22    0.37
  -5   0  15    0.50    0.24
  -5   0  15    0.04    0.34
   5   0 -15    0.53    0.25
   4   0 -15   -0.11    0.23
  -4   0  15    0.26    0.31
  -4   0  15   -0.21    0.17
   3   0 -15    0.86    0.30
  -3   0  15    0.87    0.28
  -3   0  15    0.19    0.29
   2   0 -15   -0.14    0.19
  -2   0  15   -0.30    0.14
  -2   0  15   -0.40    0.24
  -1   0  15    0.08    0.18
   1   0 -15   -0.08    0.22
   0   0  15   -0.19    0.15
   0   0 -15   -0.19    0.24
  -1   0 -15    1.04    0.35
   1   0  15    0.91    0.25
   2   0  15    0.08    0.22
   2   0  15    0.05    0.28
  -2   0 -15    0.33    0.28
  -3   0 -15   -0.09    0.26
   3   0  15    0.08    0.22
   3   0  15   -0.16    0.30
  -3   0 -15    0.12    0.30
   4   0  15   -0.11    0.19
  -4   0 -15    0.49    0.34
   4   0  15    0.12    0.30
  -4   0 -15    0.63    0.30
   5   0  15    0.35    0.36
  -5   0 -15    0.42    0.35
  -6   0 -15    0.39    0.42
  -7   0 -15    0.84    0.49
   8  -1 -15    0.84    0.43
  -8   1  15    1.40    0.81
   8   1 -15    0.25    0.39
  -8  -1  15   -1.01    0.79
  -7   1  15    2.18    0.64
   7  -1 -15    2.49    0.53
   7   1 -15    1.41    0.46
  -7  -1  15    2.88    0.76
  -6  -1  15    0.24    0.41
   6  -1 -15    0.07    0.33
  -6   1  15   -0.13    0.37
  -5   1  15    0.35    0.36
   5   1 -15    1.74    0.39
   5  -1 -15    1.59    0.38
  -5  -1  15    1.31    0.36
  -5   1  15    1.14    0.35
  -5  -1  15    1.45    0.45
   4   1 -15    0.99    0.34
  -4  -1  15    0.11    0.22
  -4  -1  15    0.88    0.35
  -4   1  15   -0.21    0.20
  -4   1  15    0.47    0.31
   4  -1 -15    0.32    0.27
  -3   1  15    7.71    0.73
   3  -1 -15    5.80    0.69
  -3   1  15    6.95    0.68
   3   1 -15    7.20    0.73
  -3  -1  15    6.34    0.66
  -3  -1  15    8.02    0.69
  -2   1  15    0.12    0.20
  -2   1  15   -0.29    0.28
   2   1 -15    0.15    0.23
  -2  -1  15    0.14    0.20
   2  -1 -15    0.01    0.20
  -1   1  15   -0.16    0.16
  -1   1  15    0.50    0.26
   1  -1 -15    0.27    0.28
   0  -1 -15    0.15    0.26
   0   1 -15    0.12    0.26
   0  -1  15    0.06    0.18
   0   1  15    0.22    0.20
   0   1  15    0.39    0.24
   1   1  15   16.97    1.25
   1  -1  15   15.74    1.16
  -1   1 -15   17.89    1.30
  -1  -1 -15   18.22    1.30
   1   1  15   14.50    1.13
  -2  -1 -15    2.58    0.46
   2  -1  15    1.92    0.37
  -2   1 -15    2.85    0.46
   2   1  15    2.42    0.48
  -2   1 -15    2.11    0.39
   2   1  15    2.06    0.37
   3   1  15    0.19    0.31
   3  -1  15    0.15    0.22
   3   1  15   -0.25    0.19
  -3  -1 -15   -0.07    0.27
  -3   1 -15    0.10    0.27
  -3   1 -15   -0.13    0.26
   4  -1  15    3.74    0.51
  -4   1 -15    4.10    0.60
  -4   1 -15    4.12    0.55
   4   1  15    3.07    0.45
  -4  -1 -15    3.84    0.59
   4   1  15    3.97    0.62
  -4  -1 -15    3.23    0.53
  -5   1 -15    5.41    0.76
   5   1  15    4.36    0.69
  -5  -1 -15    6.03    0.79
   5  -1  15    4.46    0.60
   6   1  15    0.11    0.41
  -6   1 -15    0.53    0.46
  -6  -1 -15    0.64    0.42
  -7  -1 -15    5.08    0.82
  -7   1 -15    2.56    0.67
   7   1  15    2.71    0.75
   8  -2 -15    2.76    0.61
  -7   2  15    0.39    0.53
   7   2 -15    0.54    0.36
   7  -2 -15    0.89    0.39
  -6   2  15   -0.07    0.36
  -6  -2  15    0.17    0.25
   6  -2 -15    0.18    0.31
   5  -2 -15    1.31    0.43
   5   2 -15    0.57    0.33
  -5  -2  15    0.74    0.30
  -5   2  15    0.28    0.35
  -4  -2  15   17.60    1.33
   4   2 -15   20.84    1.48
  -4   2  15   16.95    1.42
  -4   2  15   19.53    1.39
   4  -2 -15   19.80    1.42
  -3  -2  15    3.42    0.47
  -3   2  15    4.11    0.52
   3  -2 -15    3.31    0.51
   3   2 -15    3.43    0.54
  -3   2  15    3.71    0.55
  -2   2  15    0.65    0.25
  -2  -2  15    0.46    0.25
  -2   2  15   -0.03    0.30
   2   2 -15    0.49    0.30
   2  -2 -15    0.14    0.23
  -1  -2  15   43.27    2.64
  -1   2  15   38.29    2.81
  -1   2  15   43.91    2.65
   1   2 -15   44.76    2.85
   1  -2 -15   44.70    2.83
   0   2  15    6.80    0.63
   0  -2  15    7.48    0.66
   0   2  15    5.89    0.65
   0  -2 -15    6.74    0.73
   0   2 -15    8.65    0.75
  -1  -2 -15   -0.05    0.27
   1   2  15   -0.02    0.26
   1  -2  15    0.14    0.23
  -1   2 -15    0.26    0.26
   1   2  15   -0.07    0.18
  -2   2 -15    1.74    0.40
  -2  -2 -15    1.62    0.42
   2   2  15    1.50    0.44
   2  -2  15    1.36    0.33
  -2   2 -15    1.95    0.39
   2   2  15    1.49    0.30
   3   2  15    0.94    0.41
   3   2  15    0.47    0.24
  -3  -2 -15    0.52    0.30
  -3   2 -15    0.36    0.30
   3  -2  15    0.46    0.27
  -3   2 -15    0.55    0.31
  -4  -2 -15    2.84    0.49
  -4   2 -15    3.66    0.58
   4   2  15    3.16    0.56
   4  -2  15    2.97    0.49
   5  -2  15    5.41    0.66
   5   2  15    5.27    0.76
  -5   2 -15    7.52    0.88
  -6   2 -15    0.51    0.43
   6   2  15    0.37    0.43
  -6  -2 -15    1.64    0.51
  -7   2 -15    4.84    0.82
  -7  -2 -15    5.49    0.85
   7   2  15    3.97    0.88
   7   3 -15    0.85    0.39
   7  -3 -15    1.54    0.47
  -7   3  15    0.65    0.55
  -6  -3  15    0.18    0.23
  -6   3  15    0.10    0.35
   6  -3 -15    0.37    0.35
  -5   3  15    0.77    0.39
  -5  -3  15    1.94    0.40
   5  -3 -15    1.23    0.46
   5   3 -15    1.56    0.44
  -4   3  15    1.43    0.38
  -4  -3  15    1.97    0.40
   4   3 -15    1.77    0.46
   4  -3 -15    2.22    0.42
  -4   3  15    1.99    0.45
  -3   3  15    0.65    0.31
   3   3 -15    1.09    0.36
  -3   3  15    0.99    0.38
  -3  -3  15    1.08    0.32
   3  -3 -15    1.26    0.34
  -2   3  15    6.17    0.68
   2  -3 -15    6.36    0.67
  -2  -3  15    6.78    0.65
  -2   3  15    7.07    0.69
   2   3 -15    7.23    0.74
  -1   3  15   -0.19    0.26
   1   3 -15    0.21    0.28
  -1  -3  15    0.11    0.19
  -1   3  15    0.33    0.24
   1  -3 -15    0.22    0.28
   0  -3 -15   35.71    2.56
   0   3 -15   41.40    2.60
   0  -3  15   37.43    2.39
   0   3  15   38.11    2.59
   0   3  15   39.10    2.38
   1   3  15    0.95    0.28
  -1   3 -15    0.57    0.28
   1   3  15    1.28    0.40
  -1  -3 -15    0.36    0.30
   1  -3  15    1.15    0.30
  -1   3 -15    1.11    0.33
   2   3  15    9.99    0.89
  -2  -3 -15   10.15    0.88
   2   3  15    9.12    0.74
   2  -3  15    8.74    0.77
  -2   3 -15    9.38    0.85
  -2   3 -15    8.12    0.79
  -3   3 -15    0.11    0.29
   3  -3  15    0.29    0.24
  -3  -3 -15    0.31    0.29
   3   3  15    0.22    0.33
  -3   3 -15    0.54    0.31
   4   3  15    4.23    0.66
   4  -3  15    4.09    0.55
  -4  -3 -15    4.47    0.61
  -4   3 -15    4.51    0.65
   5   3  15   11.13    1.09
   5  -3  15   11.42    0.98
  -5   3 -15   11.29    1.09
   6  -3  15    0.92    0.37
   6   3  15    0.71    0.49
  -6   3 -15    1.14    0.48
  -7   3 -15    3.28    0.66
   7   3  15    1.99    0.73
  -7   4  15    0.89    0.55
   7  -4 -15    0.93    0.43
  -6   4  15   -0.07    0.39
   6  -4 -15    0.16    0.33
   6   4 -15    0.69    0.37
  -6  -4  15    0.04    0.26
   5  -4 -15    1.19    0.43
  -5  -4  15    1.00    0.33
  -5   4  15    0.98    0.41
   5   4 -15    1.94    0.47
   4   4 -15    3.68    0.60
  -4  -4  15    3.39    0.50
  -4   4  15    3.37    0.58
   4  -4 -15    2.98    0.50
   4  -4 -15    3.67    0.58
  -3   4  15   -0.04    0.22
  -3  -4  15    0.12    0.20
   3  -4 -15    0.16    0.24
  -3   4  15    0.22    0.32
   3   4 -15    0.04    0.27
   2   4 -15    0.03    0.27
  -2  -4  15   -0.32    0.18
  -2   4  15    0.25    0.25
   2  -4 -15   -0.08    0.27
  -2   4  15    0.02    0.29
  -1   4  15    7.16    0.68
  -1   4  15    6.65    0.76
   1   4 -15    5.92    0.72
  -1  -4  15    6.61    0.64
   1  -4 -15    7.17    0.72
   0   4  15    0.59    0.24
   0   4 -15    0.04    0.27
   0  -4  15    0.26    0.21
   0   4 -15    0.26    0.26
   0  -4 -15    0.22    0.28
   0   4  15    0.45    0.30
   1  -4  15    0.46    0.25
  -1  -4 -15    0.40    0.30
  -1   4 -15    0.25    0.29
   1   4  15    0.35    0.35
   1   4  15    0.23    0.19
  -1   4 -15    0.50    0.29
  -2   4 -15    3.78    0.57
   2  -4  15    4.95    0.56
  -2   4 -15    4.39    0.59
   2   4  15    5.04    0.66
   2   4  15    3.83    0.46
  -2  -4 -15    4.35    0.61
  -3   4 -15   -0.03    0.27
   3   4  15    0.05    0.34
  -3  -4 -15    0.06    0.27
  -3   4 -15   -0.15    0.26
   3  -4  15    0.04    0.22
   4   4  15   -0.35    0.34
   4  -4  15    0.12    0.29
  -4  -4 -15    0.08    0.28
  -4   4 -15    0.26    0.34
   5  -4  15   -0.02    0.27
  -5   4 -15    0.55    0.36
   5   4  15    0.45    0.45
  -5  -4 -15    0.63    0.35
   6  -4  15    2.33    0.50
   6   4  15    1.88    0.63
  -6   4 -15    1.41    0.50
  -7   4 -15    0.22    0.43
   7  -5 -15    0.52    0.39
  -7   5  15   -0.37    0.54
   6   5 -15    1.07    0.41
   6  -5 -15    1.64    0.48
  -6   5  15    0.91    0.50
  -6  -5  15    0.50    0.32
  -5   5  15    0.37    0.37
   5   5 -15    1.09    0.38
  -5  -5  15    1.14    0.35
   5  -5 -15    0.79    0.37
  -4   5  15    0.92    0.44
  -4  -5  15    2.04    0.39
   4  -5 -15    1.16    0.41
   4   5 -15    1.96    0.46
   4  -5 -15    1.07    0.38
  -3   5  15    3.41    0.52
   3  -5 -15    3.71    0.53
  -3  -5  15    2.91    0.45
   3   5 -15    3.06    0.55
  -3   5  15    2.28    0.51
   2   5 -15   10.65    0.95
  -2   5  15    8.18    0.87
  -2   5  15   10.46    0.86
   2  -5 -15   10.55    0.91
  -2  -5  15    9.12    0.81
   1   5 -15    0.76    0.30
   1   5 -15    0.93    0.38
   1  -5 -15    0.69    0.34
  -1  -5  15    0.43    0.26
  -1   5  15    0.66    0.28
  -1   5  15    1.10    0.40
   0   5  15   16.56    1.13
   0  -5 -15   15.39    1.24
   0   5 -15   16.31    1.25
   0   5  15   15.26    1.24
   0  -5  15   14.72    1.13
   0   5 -15   13.84    1.17
  -1   5 -15    3.99    0.54
   1   5  15    2.87    0.41
   1   5  15    2.89    0.56
  -1  -5 -15    3.14    0.55
   1  -5  15    3.13    0.46
  -1   5 -15    3.50    0.53
  -2   5 -15    0.72    0.33
   2  -5  15    0.86    0.31
  -2   5 -15    0.36    0.33
   2   5  15    1.13    0.40
  -2  -5 -15    1.53    0.44
   3  -5  15    4.78    0.63
  -3   5 -15    6.86    0.77
  -3   5 -15    6.21    0.70
  -3  -5 -15    5.61    0.71
   3   5  15    6.70    0.82
   4   5  15    9.55    0.95
  -4  -5 -15    9.71    0.90
   4  -5  15    8.49    0.84
  -4   5 -15    8.79    0.92
   5   5  15    1.11    0.48
   5  -5  15    1.33    0.42
  -5   5 -15    1.36    0.49
  -5  -5 -15    1.36    0.44
   6   5  15   11.13    1.30
   6  -5  15   12.50    1.07
  -6   5 -15   11.73    1.18
   7  -5  15    3.45    0.63
   7  -6 -15    1.16    0.45
  -7   6  15    0.28    0.59
   6   6 -15    0.46    0.35
   6  -6 -15   -0.18    0.32
  -6   6  15    0.09    0.46
   5  -6 -15    0.15    0.37
  -5   6  15   -0.10    0.38
  -5  -6  15   -0.07    0.23
  -4  -6  15   11.20    0.89
   4  -6 -15   12.92    1.04
   4  -6 -15    9.72    0.93
  -4   6  15    8.84    0.96
   3  -6 -15    6.58    0.76
  -3  -6  15    6.88    0.69
  -3   6  15    7.50    0.85
   3  -6 -15    6.29    0.73
   2   6 -15    0.07    0.32
  -2   6  15   -0.14    0.30
   2   6 -15    0.82    0.28
   2  -6 -15    0.13    0.26
  -2   6  15    0.77    0.30
  -2  -6  15    0.79    0.28
   1   6 -15   23.70    1.78
   1   6 -15   22.93    1.72
  -1   6  15   25.97    1.65
  -1  -6  15   24.09    1.63
  -1   6  15   23.36    1.79
   1  -6 -15   24.58    1.78
   0   6  15    2.79    0.55
   0  -6 -15    3.22    0.58
   0   6 -15    3.01    0.54
   0   6  15    2.78    0.44
   0  -6  15    3.14    0.47
   0   6 -15    4.47    0.56
   1   6  15   -0.03    0.19
  -1   6 -15    0.36    0.29
   1  -6  15    0.37    0.27
  -1  -6 -15    0.28    0.33
  -1   6 -15    0.39    0.31
   1   6  15    0.40    0.37
  -2   6 -15    7.12    0.78
  -2  -6 -15    6.23    0.79
   2   6  15    7.81    0.83
  -2   6 -15    7.26    0.77
   2  -6  15    7.34    0.71
   3   6  15    5.38    0.77
  -3  -6 -15    5.13    0.71
   3  -6  15    4.85    0.63
  -3   6 -15    6.95    0.78
  -3   6 -15    4.86    0.64
  -4  -6 -15    2.56    0.52
   4  -6  15    1.93    0.46
  -4   6 -15    2.95    0.58
   4   6  15    2.32    0.57
  -5   6 -15   10.98    1.10
   5  -6  15   12.83    1.06
  -5  -6 -15   10.46    1.04
   5   6  15   10.83    1.12
  -6   6 -15    1.34    0.52
   6  -6  15    0.42    0.33
   6   6  15    0.39    0.59
  -6   7  15    0.28    0.50
   6  -7 -15    0.33    0.47
  -5   7  15    0.99    0.46
  -5  -7  15    0.71    0.43
   5  -7 -15    0.00    0.36
  -4  -7  15    1.59    0.38
  -4  -7  15    1.67    0.54
  -4   7  15    0.44    0.40
   4  -7 -15    0.33    0.33
  -3  -7  15    2.91    0.48
   3  -7 -15    4.83    0.62
  -3  -7  15    3.87    0.67
   3  -7 -15    4.85    0.62
   3  -7 -15    2.76    0.54
   3   7 -15    3.22    0.53
  -3   7  15    4.09    0.64
  -2   7  15    1.32    0.45
   2  -7 -15    1.09    0.38
   2  -7 -15    1.21    0.39
  -2  -7  15    1.52    0.35
   2   7 -15    0.75    0.34
   1  -7 -15    0.93    0.41
  -1   7  15    0.82    0.29
  -1  -7  15    0.54    0.28
  -1   7  15    0.08    0.33
   1   7 -15    0.86    0.40
   0   7 -15   -0.30    0.26
   0  -7 -15   -0.27    0.29
   0   7  15    0.00    0.31
   0   7 -15   -0.15    0.23
   0   7  15   -0.06    0.20
   0  -7  15    0.18    0.23
   1  -7  15   12.68    1.07
  -1   7 -15   13.03    1.15
  -1   7 -15   14.41    1.16
   1   7  15   14.51    1.21
  -1  -7 -15   13.36    1.17
  -2   7 -15    0.11    0.32
  -2  -7 -15    0.38    0.36
   2   7  15    0.85    0.37
   2  -7  15    0.06    0.25
  -2   7 -15    0.54    0.37
  -3   7 -15    1.04    0.43
   3   7  15    1.16    0.45
  -3  -7 -15    0.68    0.38
   3  -7  15    1.31    0.38
   4   7  15    0.84    0.49
   4  -7  15    1.61    0.43
  -4  -7 -15    0.34    0.38
  -4   7 -15    1.62    0.47
  -5   7 -15    4.16    0.72
   5  -7  15    3.33    0.59
   5   7  15    3.13    0.74
  -5  -7 -15    2.68    0.61
  -6   7 -15    0.79    0.45
   6  -7  15    0.34    0.36
   6   7  15    0.15    0.58
  -6   8  15    1.78    0.64
  -6  -8  15    2.59    0.67
   6  -8 -15    1.62    0.59
   5  -8 -15    0.95    0.46
  -5  -8  15    0.80    0.48
  -5   8  15    0.46    0.49
   4  -8 -15    0.41    0.38
   4   8 -15    0.13    0.37
  -4   8  15    0.29    0.41
  -4  -8  15    0.41    0.25
  -4  -8  15    0.40    0.41
  -3   8  15    0.14    0.33
   3  -8 -15    0.04    0.31
  -3  -8  15   -0.24    0.34
   3  -8 -15    0.09    0.31
  -3  -8  15    0.08    0.25
   3   8 -15   -0.67    0.29
   2   8 -15    0.34    0.31
  -2  -8  15    0.40    0.27
  -2   8  15    0.53    0.39
  -2  -8  15    0.50    0.38
   2  -8 -15    0.67    0.35
   2  -8 -15    0.36    0.28
   1  -8 -15    0.69    0.38
   1   8 -15    0.17    0.30
  -1  -8  15   -0.24    0.31
  -1   8  15    0.65    0.40
  -1  -8  15    0.29    0.26
   1  -8 -15    0.31    0.28
   0   8 -15   -0.28    0.29
   0  -8  15    0.33    0.24
   0   8 -15   -0.23    0.27
   0  -8 -15   -0.13    0.31
   0   8  15   -0.12    0.34
  -1   8 -15    0.73    0.36
   1   8  15    1.27    0.48
   1  -8  15    0.56    0.32
  -1   8 -15    1.23    0.41
  -1  -8 -15    1.14    0.44
  -2  -8 -15    0.58    0.39
  -2   8 -15    0.13    0.32
   2   8  15    0.79    0.39
   2  -8  15    0.70    0.34
  -2   8 -15    0.80    0.37
  -3  -8 -15    0.17    0.35
   3   8  15    0.97    0.42
  -3   8 -15    0.78    0.37
   3  -8  15    0.12    0.29
   4   8  15    0.39    0.47
   4  -8  15    0.46    0.32
  -4   8 -15    0.03    0.33
  -4  -8 -15    0.43    0.36
  -5  -8 -15    1.36    0.53
  -5   8 -15    2.07    0.58
   5  -8  15    2.73    0.54
   5   8  15    1.27    0.61
   6  -9 -15    0.59    0.50
  -6  -9  15    0.43    0.53
  -5  -9  15    0.29    0.49
  -5   9  15    0.73    0.57
   5  -9 -15    0.34    0.40
  -4   9  15    3.88    0.73
   4  -9 -15    5.90    0.74
  -4  -9  15    3.11    0.69
   4   9 -15    5.48    0.73
  -3   9  15   10.69    1.09
  -3  -9  15   10.49    0.94
   3  -9 -15   12.04    1.06
   3  -9 -15   12.86    1.11
  -3  -9  15   11.82    1.12
   3   9 -15   11.26    1.03
  -2   9  15    7.59    0.93
   2  -9 -15    9.11    0.95
   2  -9 -15    8.17    0.84
   2   9 -15    8.52    0.83
  -2  -9  15    8.51    0.95
  -2  -9  15    7.55    0.77
  -1   9  15   -0.08    0.33
   1  -9 -15    0.42    0.27
  -1  -9  15    0.25    0.26
   1   9 -15   -0.16    0.26
   1  -9 -15    0.42    0.38
  -1  -9  15   -0.26    0.31
   0   9 -15   -0.01    0.32
   0  -9 -15    0.28    0.35
   0   9  15    0.15    0.36
   0  -9  15    0.00    0.23
  -1   9 -15    6.59    0.80
   1  -9  15    7.54    0.77
  -1  -9 -15    5.61    0.83
   1   9  15    7.94    0.94
  -1   9 -15    6.95    0.84
  -2   9 -15    1.25    0.45
  -2   9 -15    0.46    0.37
   2   9  15    0.46    0.40
  -2  -9 -15    1.40    0.47
   2  -9  15    0.52    0.29
  -3   9 -15    0.71    0.41
   3   9  15    0.58    0.47
  -3  -9 -15    0.80    0.43
   3  -9  15    1.28    0.42
   4   9  15    4.59    0.77
   4  -9  15    3.68    0.62
  -4   9 -15    3.87    0.67
  -4  -9 -15    4.37    0.73
  -5  -9 -15    0.78    0.51
   5   9  15    1.78    0.67
   5  -9  15    1.19    0.43
  -5   9 -15    0.81    0.45
  -6 -10  15    1.47    0.65
   5  10 -15    1.83    0.53
   5 -10 -15    1.31    0.54
  -5  10  15    1.97    0.55
  -5 -10  15    1.97    0.66
  -4 -10  15    6.66    0.98
   4  10 -15    8.90    0.89
   4 -10 -15    8.89    0.99
  -4  10  15    8.06    0.98
   3 -10 -15    3.22    0.60
  -3 -10  15    1.53    0.39
  -3  10  15    1.33    0.48
  -3 -10  15    2.47    0.61
   3 -10 -15    2.64    0.53
   3  10 -15    2.23    0.49
   2 -10 -15    2.56    0.57
  -2 -10  15    1.81    0.53
   2  10 -15    2.08    0.48
   2 -10 -15    1.55    0.45
  -2  10  15    1.70    0.52
  -2 -10  15    1.60    0.39
  -1  10  15    0.37    0.44
  -1 -10  15   -0.22    0.30
  -1 -10  15    0.37    0.27
   1 -10 -15    0.40    0.38
   1  10 -15    0.40    0.36
   0  10 -15    3.13    0.58
   0  10  15    3.08    0.66
   0 -10  15    2.69    0.47
   0 -10 -15    3.26    0.65
   0 -10  15    2.02    0.52
  -1  10 -15    0.94    0.42
  -1 -10 -15    0.83    0.49
   1 -10  15    0.94    0.35
   1  10  15    1.44    0.56
  -1  10 -15    1.97    0.50
  -2 -10 -15    7.60    0.97
  -2  10 -15    6.61    0.83
  -2  10 -15    7.39    0.92
   2  10  15    8.26    0.99
   2 -10  15    7.07    0.81
  -3  10 -15    0.10    0.35
  -3 -10 -15    0.68    0.45
   3  10  15   -0.03    0.38
   3 -10  15    0.49    0.37
   4 -10  15    1.60    0.47
  -4  10 -15    1.53    0.51
  -4 -10 -15    1.87    0.58
   4  10  15    1.85    0.66
  -5 -10 -15    0.42    0.51
  -5  10 -15   -0.75    0.33
  -5 -11  15    0.20    0.53
   5 -11 -15    0.26    0.52
   5  11 -15    0.83    0.46
  -4  11  15    2.35    0.54
  -4 -11  15    0.98    0.58
   4  11 -15    1.24    0.50
   4 -11 -15    0.71    0.49
  -3  11  15    1.78    0.52
  -3 -11  15    2.12    0.61
   3  11 -15    2.96    0.59
   3 -11 -15    1.97    0.54
  -2 -11  15    2.59    0.57
  -2  11  15    1.53    0.49
   2 -11 -15    2.73    0.60
   2  11 -15    2.43    0.55
  -2 -11  15    1.42    0.40
   1  11 -15    0.54    0.38
   1 -11 -15    0.79    0.46
  -1 -11  15    0.72    0.32
  -1 -11  15    0.78    0.42
  -1  11  15    0.67    0.43
   0  11 -15    1.17    0.46
   0 -11  15    0.52    0.31
   0 -11 -15    0.32    0.38
   0  11  15    1.13    0.51
   0 -11  15    0.54    0.38
   1 -11  15    0.62    0.37
  -1  11 -15    0.77    0.39
  -1 -11 -15    0.65    0.42
   1  11  15    0.56    0.41
   2  11  15    0.46    0.43
  -2 -11 -15    0.59    0.46
  -2  11 -15    1.19    0.44
   2 -11  15    0.66    0.38
   3  11  15    0.40    0.42
   3 -11  15    0.36    0.37
  -3  11 -15    0.83    0.39
  -3 -11 -15   -0.14    0.47
  -4  11 -15    0.56    0.45
   4  11  15    0.50    0.60
   4 -11  15    0.36    0.38
  -4 -11 -15    0.14    0.50
   5  12 -15    2.34    0.61
  -4 -12  15    0.21    0.55
   4 -12 -15    0.28    0.49
   4  12 -15    1.66    0.44
  -4  12  15    0.45    0.45
   3  12 -15    0.19    0.39
  -3 -12  15    0.18    0.39
  -3  12  15    0.28    0.42
   3 -12 -15   -0.09    0.36
  -2  12  15    0.63    0.44
   2 -12 -15    1.63    0.52
   2  12 -15    0.87    0.43
  -2 -12  15    0.62    0.43
  -1 -12  15    1.95    0.52
   1  12 -15    1.16    0.44
   1 -12 -15    2.92    0.61
  -1 -12  15    1.20    0.42
  -1  12  15    1.28    0.50
   0  12  15    0.47    0.44
   0 -12  15    0.37    0.37
   0  12 -15    0.71    0.40
   0 -12 -15    0.82    0.46
   0 -12  15    0.24    0.31
   1 -12  15    0.14    0.34
   1 -12  15   -0.08    0.34
   1  12  15   -0.04    0.34
  -1  12 -15    0.46    0.38
  -1 -12 -15    1.00    0.47
   2 -12  15    0.24    0.39
  -2 -12 -15    0.44    0.43
   2  12  15    0.30    0.40
  -2  12 -15    0.13    0.34
  -3  12 -15    1.22    0.50
   3  12  15    1.35    0.50
  -3 -12 -15    1.49    0.66
   3 -12  15    0.91    0.46
   4  13 -15    0.72    0.47
   4 -13 -15    0.32    0.55
   3  13 -15    3.50    0.63
  -3 -13  15    3.19    0.71
   2  13 -15    1.00    0.42
   2 -13 -15    1.35    0.55
  -2  13  15    1.85    0.55
  -2 -13  15    1.16    0.50
   1 -13 -15    0.56    0.46
   1  13 -15    0.86    0.43
  -1 -13  15    0.72    0.42
  -1 -13  15   -0.03    0.28
  -1  13  15    0.34    0.43
   0 -13  15    2.63    0.55
   0  13 -15    3.15    0.64
   0 -13  15    2.14    0.58
   0  13  15    3.15    0.71
   0 -13 -15    3.96    0.74
   1 -13  15    3.08    0.65
   1  13  15    1.95    0.57
  -1  13 -15    1.94    0.54
  -1 -13 -15    2.57    0.68
   1 -13  15    2.21    0.55
   2  13  15    0.51    0.48
   2 -13  15    0.95    0.46
  -2 -13 -15    1.86    0.54
  -2  13 -15    1.06    0.50
   2 -14 -15    1.52    0.57
   2  14 -15    1.39    0.50
   1  14 -15    4.74    0.77
   1 -14 -15    4.71    0.83
  -1 -14  15    3.98    0.79
   0 -14  15    0.90    0.46
   0  14 -15    0.65    0.43
   0 -14  15    0.67    0.43
   0 -14 -15    1.63    0.62
   1 -14  15   -0.02    0.39
   1 -14  15   -0.13    0.43
  -8   0  16   -1.09    0.73
   8   0 -16   -0.29    0.39
   7   0 -16    0.84    0.38
  -7   0  16    0.31    0.56
   6   0 -16    0.12    0.35
  -6   0  16    0.36    0.41
  -5   0  16   -0.16    0.34
  -5   0  16   -0.24    0.22
   5   0 -16    0.02    0.26
  -4   0  16   -0.09    0.21
   4   0 -16    0.09    0.26
  -4   0  16   -0.05    0.31
  -3   0  16   15.98    1.26
   3   0 -16   17.09    1.30
  -3   0  16   16.68    1.23
   2   0 -16    4.23    0.57
  -2   0  16    4.45    0.54
  -1   0  16   42.19    2.65
   1   0 -16   43.42    2.85
   0   0  16    8.59    0.77
   0   0 -16    9.66    0.87
   1   0  16   79.95    4.90
  -1   0 -16   87.62    5.29
  -2   0 -16    8.42    0.82
   2   0  16    8.71    0.75
   3   0  16    2.12    0.38
  -3   0 -16    2.19    0.45
  -4   0 -16    0.19    0.31
   4   0  16    0.34    0.23
  -5   0 -16    5.63    0.80
  -6   0 -16    0.69    0.45
  -7   0 -16    1.40    0.54
   8   1 -16    0.10    0.39
  -7  -1  16    2.74    0.81
   7   1 -16    3.27    0.59
  -7   1  16    3.21    0.72
   7  -1 -16    4.70    0.70
  -6   1  16    0.47    0.43
   6  -1 -16    1.56    0.47
  -6  -1  16    1.19    0.46
  -5  -1  16   -0.39    0.33
  -5   1  16   -0.25    0.30
  -5   1  16    0.04    0.24
   5   1 -16    0.22    0.27
   5  -1 -16    0.41    0.28
  -5  -1  16    0.63    0.31
  -4   1  16   -0.19    0.29
   4   1 -16   -0.10    0.27
  -4  -1  16    0.11    0.22
  -4   1  16    0.14    0.24
   4  -1 -16    0.33    0.27
  -4  -1  16   -0.61    0.28
   3   1 -16    0.87    0.35
  -3  -1  16    1.20    0.32
   3  -1 -16    1.51    0.37
  -3   1  16    2.26    0.40
  -3   1  16    2.03    0.43
   2  -1 -16    1.43    0.37
  -2   1  16    0.87    0.38
  -2   1  16    1.39    0.33
  -2  -1  16    0.63    0.29
   2   1 -16    1.45    0.36
  -1   1  16   17.32    1.11
   1   1 -16   11.32    1.10
  -1   1  16   13.09    1.03
   1  -1 -16   14.82    1.16
  -1  -1  16   12.50    1.03
   0   1  16    8.91    0.79
   0  -1  16    9.39    0.78
   0   1  16    8.48    0.81
   0  -1 -16   10.04    0.90
   0   1 -16   10.91    0.90
   1   1  16   57.50    3.24
   1   1  16   45.29    2.93
  -1   1 -16   42.00    3.15
   1  -1  16   40.97    2.93
  -1  -1 -16   57.90    3.24
   2  -1  16    2.17    0.39
  -2  -1 -16    2.69    0.49
   2   1  16    2.82    0.40
  -2   1 -16    1.55    0.42
   2   1  16    2.05    0.43
   3  -1  16    4.23    0.53
   3   1  16    3.90    0.51
  -3   1 -16    3.72    0.57
  -3  -1 -16    3.87    0.60
   3   1  16    4.97    0.65
  -4   1 -16    0.66    0.39
  -4   1 -16    1.09    0.37
   4   1  16    1.12    0.42
   4  -1  16    0.65    0.29
  -4  -1 -16    1.43    0.39
   5  -1  16    0.66    0.32
  -5   1 -16    0.59    0.40
   5   1  16    0.95    0.41
  -6   1 -16    0.81    0.46
  -7   1 -16    1.52    0.58
  -7  -1 -16    0.87    0.58
  -7   2  16    0.58    0.58
   7  -2 -16    1.02    0.40
   7   2 -16    0.19    0.33
   6  -2 -16    0.48    0.32
  -6   2  16    0.03    0.38
  -6  -2  16    0.34    0.28
  -5  -2  16    0.79    0.33
   5   2 -16    0.91    0.37
  -5   2  16    0.57    0.39
   4   2 -16    3.20    0.53
  -4  -2  16    2.76    0.47
  -4   2  16    3.38    0.53
   4  -2 -16    3.41    0.51
  -4   2  16    2.22    0.49
  -3   2  16    2.09    0.41
   3   2 -16    1.82    0.41
  -3   2  16    0.98    0.39
   3  -2 -16    1.63    0.40
  -3  -2  16    1.71    0.38
  -2   2  16    0.05    0.33
   2  -2 -16    1.12    0.32
  -2  -2  16    0.99    0.31
   2   2 -16    1.27    0.36
  -2   2  16    0.46    0.29
   1  -2 -16    0.50    0.29
  -1   2  16    0.17    0.22
   1   2 -16   -0.09    0.25
  -1   2  16    0.71    0.29
  -1  -2  16   -0.12    0.20
   0  -2  16   13.11    1.02
   0  -2 -16   14.16    1.15
   0   2  16   14.74    1.11
   0   2 -16   13.79    1.15
   0   2  16   13.04    1.02
   1  -2  16    2.74    0.43
  -1   2 -16    3.09    0.51
   2   2  16    4.04    0.47
  -2  -2 -16    3.84    0.58
  -2   2 -16    3.75    0.56
   2   2  16    4.28    0.59
   2  -2  16    3.80    0.50
   3   2  16    0.12    0.19
   3  -2  16    0.40    0.24
  -3   2 -16    0.59    0.34
  -3   2 -16    0.42    0.29
  -3  -2 -16    0.81    0.33
   3   2  16    0.29    0.34
  -4  -2 -16    0.31    0.29
  -4   2 -16    0.02    0.32
   4  -2  16    0.31    0.24
   4   2  16    0.23    0.34
   5   2  16    1.66    0.48
  -5   2 -16    0.84    0.46
   5  -2  16    1.31    0.38
  -6   2 -16    3.75    0.70
   6   2  16    2.80    0.68
  -7   2 -16    0.18    0.46
   7   2  16    0.13    0.58
   7   3 -16    2.14    0.51
   7  -3 -16    1.59    0.53
  -7   3  16    1.35    0.63
   6  -3 -16    0.14    0.30
  -6  -3  16    0.09    0.27
  -6   3  16    0.21    0.37
   5   3 -16    0.58    0.34
  -5   3  16    0.24    0.34
  -5  -3  16   -0.14    0.21
   5  -3 -16    0.60    0.32
  -4   3  16    8.41    0.84
  -4   3  16    6.89    0.78
   4   3 -16    8.23    0.89
   4  -3 -16    9.43    0.81
  -4  -3  16    7.54    0.78
   3  -3 -16    1.89    0.40
  -3   3  16    1.49    0.38
   3   3 -16    1.31    0.40
  -3   3  16    0.32    0.37
  -3  -3  16    1.60    0.36
  -2   3  16    5.81    0.64
  -2  -3  16    6.03    0.62
   2  -3 -16    4.59    0.61
   2   3 -16    4.60    0.65
  -2   3  16    5.52    0.68
   1  -3 -16    0.88    0.35
  -1  -3  16    0.93    0.31
  -1   3  16    0.77    0.34
  -1   3  16    0.88    0.31
   1   3 -16    0.88    0.36
   0   3  16    0.08    0.20
   0   3 -16    0.81    0.34
   0  -3  16    0.14    0.22
   0  -3 -16    0.12    0.28
   0   3  16    0.17    0.29
   1  -3  16    1.97    0.39
  -1  -3 -16    1.92    0.46
  -1   3 -16    1.82    0.44
   1   3  16    2.50    0.49
   1   3  16    2.23    0.37
   2   3  16    0.93    0.29
  -2   3 -16    1.38    0.41
   2   3  16    1.70    0.43
  -2   3 -16    2.04    0.40
   2  -3  16    1.52    0.36
  -2  -3 -16    1.86    0.44
  -3   3 -16    0.31    0.30
  -3  -3 -16    0.09    0.28
   3  -3  16    0.17    0.25
   3   3  16   -0.13    0.31
  -3   3 -16   -0.07    0.30
   4   3  16    5.82    0.80
  -4  -3 -16    6.29    0.72
  -4   3 -16    5.69    0.76
   4  -3  16    4.46    0.62
   5   3  16    0.48    0.40
  -5   3 -16    0.31    0.41
   5  -3  16    0.45    0.31
   6   3  16    1.40    0.64
   6  -3  16    2.19    0.48
  -6   3 -16    2.17    0.60
  -7   3 -16    3.25    0.72
  -7   4  16   -0.15    0.47
   7  -4 -16    0.90    0.42
  -6   4  16    1.83    0.58
  -6  -4  16    1.33    0.42
   6   4 -16    2.68    0.55
   6  -4 -16    2.91    0.60
   5  -4 -16    0.40    0.34
   5   4 -16    0.57    0.35
  -5   4  16    0.38    0.38
  -5  -4  16    0.63    0.30
  -4   4  16    0.32    0.33
  -4  -4  16    0.20    0.25
   4  -4 -16    0.40    0.29
   4   4 -16    0.15    0.28
  -3   4  16    0.06    0.30
  -3  -4  16   -0.06    0.20
  -3   4  16   -0.05    0.30
   3   4 -16    0.46    0.31
   3  -4 -16    0.28    0.28
   2  -4 -16    1.55    0.40
   2   4 -16    1.02    0.39
  -2   4  16    1.09    0.41
  -2   4  16    1.17    0.37
  -2  -4  16    0.99    0.33
  -1   4  16    4.79    0.65
  -1   4  16    4.60    0.55
   1  -4 -16    4.19    0.59
  -1  -4  16    3.92    0.52
   1   4 -16    3.94    0.62
   0  -4 -16   34.68    2.35
   0  -4  16   31.26    2.15
   0   4  16   31.81    2.34
   0   4 -16   34.50    2.35
   0   4  16   36.88    2.17
  -1   4 -16    2.71    0.50
  -1  -4 -16    2.28    0.49
  -1   4 -16    3.31    0.49
   1   4  16    1.69    0.48
   1   4  16    2.45    0.39
   1  -4  16    3.18    0.46
  -2   4 -16    9.51    0.85
  -2   4 -16    9.84    0.88
   2   4  16    9.93    0.75
  -2  -4 -16    8.37    0.87
   2   4  16    7.32    0.80
   2  -4  16    8.27    0.78
   3   4  16    0.69    0.38
  -3  -4 -16    0.58    0.34
   3  -4  16    0.17    0.26
  -3   4 -16    0.17    0.32
  -3   4 -16    0.30    0.32
   4   4  16    1.97    0.52
  -4   4 -16    2.06    0.50
   4  -4  16    1.48    0.39
  -4  -4 -16    1.25    0.42
   5   4  16    7.47    0.96
  -5   4 -16    8.66    0.99
   5  -4  16    8.68    0.83
  -5  -4 -16    7.44    0.85
  -6   4 -16    3.37    0.67
   6  -4  16    2.52    0.53
   6   4  16    2.61    0.74
   7  -5 -16    1.34    0.52
  -7   5  16   -0.04    0.60
  -6  -5  16    0.00    0.26
   6   5 -16    0.66    0.39
  -6   5  16    0.19    0.45
   6  -5 -16   -0.28    0.28
   5   5 -16    1.25    0.42
  -5   5  16    0.03    0.40
   5  -5 -16    0.84    0.45
  -5  -5  16    0.80    0.32
  -4  -5  16    0.53    0.27
   4   5 -16    0.98    0.40
   4  -5 -16    0.19    0.33
   4  -5 -16    0.17    0.28
  -4   5  16    0.14    0.36
  -3   5  16    0.59    0.37
  -3  -5  16    0.31    0.24
   3  -5 -16    1.13    0.36
  -3   5  16    0.88    0.35
   3   5 -16    0.78    0.39
  -2   5  16    0.23    0.25
   2   5 -16    0.41    0.33
  -2  -5  16    0.22    0.24
   2  -5 -16    1.12    0.35
  -2   5  16    0.31    0.33
  -1   5  16    5.22    0.73
  -1   5  16    6.80    0.67
   1   5 -16    5.37    0.72
   1  -5 -16    5.10    0.69
  -1  -5  16    6.17    0.64
   0   5 -16    2.59    0.52
   0  -5 -16    3.06    0.54
   0   5  16    3.06    0.45
   0   5  16    2.93    0.54
   0   5 -16    2.77    0.47
   0  -5  16    2.73    0.45
  -1   5 -16   11.81    1.01
   1  -5  16   11.21    0.96
   1   5  16   13.15    0.94
  -1   5 -16   13.23    1.07
  -1  -5 -16   11.32    1.06
   1   5  16   11.17    1.05
   2  -5  16    1.26    0.38
  -2  -5 -16    1.22    0.41
  -2   5 -16    2.33    0.48
  -2   5 -16    2.81    0.51
   2   5  16    1.88    0.45
  -3   5 -16    0.30    0.32
   3   5  16    0.17    0.36
   3  -5  16    0.69    0.32
  -3  -5 -16    0.10    0.31
  -3   5 -16    0.23    0.31
   4   5  16    0.50    0.43
  -4  -5 -16    0.09    0.33
  -4   5 -16    0.56    0.38
   4  -5  16    1.00    0.34
  -5  -5 -16   -0.26    0.33
   5  -5  16   -0.07    0.29
   5   5  16    0.44    0.47
  -5   5 -16    0.32    0.38
  -6   5 -16    1.67    0.55
   6  -5  16    1.99    0.47
   6   5  16    1.38    0.68
   6   6 -16    1.08    0.43
  -6   6  16    0.28    0.50
   6  -6 -16    0.73    0.50
   5   6 -16    1.72    0.45
   5  -6 -16    1.53    0.51
  -5   6  16    1.37    0.51
  -5  -6  16    0.65    0.31
  -4   6  16    1.67    0.49
   4   6 -16    1.80    0.49
  -4  -6  16    1.35    0.37
   4  -6 -16    1.97    0.53
   4  -6 -16    1.60    0.42
   3  -6 -16    0.57    0.34
  -3   6  16    0.28    0.33
  -3  -6  16    0.26    0.25
   3  -6 -16    0.28    0.35
   3   6 -16    0.20    0.32
  -2   6  16    0.09    0.34
  -2  -6  16    0.04    0.21
   2  -6 -16   -0.42    0.24
  -2   6  16    0.19    0.27
   2   6 -16   -0.25    0.29
  -1  -6  16    8.59    0.77
  -1   6  16    7.77    0.84
   1  -6 -16    8.17    0.83
   1   6 -16    8.48    0.91
   1   6 -16    7.30    0.75
  -1   6  16    8.50    0.76
   0  -6  16    2.52    0.45
   0   6 -16    2.56    0.48
   0   6  16    3.04    0.45
   0  -6 -16    2.75    0.55
   0   6 -16    1.98    0.49
   0   6  16    2.91    0.55
  -1   6 -16    3.54    0.57
   1   6  16    3.33    0.60
  -1   6 -16    3.49    0.57
   1  -6  16    3.11    0.50
  -1  -6 -16    3.96    0.64
   2   6  16    9.48    0.95
  -2  -6 -16    9.75    1.00
   2  -6  16    9.61    0.89
  -2   6 -16   12.50    1.02
  -2   6 -16   11.33    1.00
  -3   6 -16    0.02    0.33
  -3  -6 -16    0.16    0.31
   3  -6  16    0.11    0.27
  -3   6 -16   -0.14    0.32
   3   6  16    0.10    0.34
  -4  -6 -16   -0.21    0.30
   4  -6  16    0.24    0.30
  -4   6 -16    0.80    0.39
   4   6  16   -0.14    0.39
  -5  -6 -16    0.45    0.42
  -5   6 -16    0.83    0.41
   5   6  16   -0.29    0.45
   5  -6  16    0.47    0.33
   6  -6  16    0.14    0.33
   6   6  16    0.47    0.63
  -6   6 -16   -0.02    0.37
   6   7 -16    1.32    0.43
  -6   7  16    0.61    0.58
   6  -7 -16    0.22    0.47
  -5  -7  16    0.40    0.29
  -5   7  16    0.55    0.46
   5  -7 -16    0.35    0.45
  -4  -7  16    2.10    0.44
  -4   7  16    2.48    0.60
   4  -7 -16    3.32    0.60
   3  -7 -16   -0.61    0.25
  -3  -7  16    0.00    0.22
   3  -7 -16    0.10    0.30
  -3   7  16    0.27    0.33
   2  -7 -16    2.22    0.48
  -2   7  16    2.88    0.56
  -2  -7  16    2.74    0.44
   2   7 -16    3.76    0.54
   2   7 -16    2.34    0.53
   2  -7 -16    3.04    0.56
  -1   7  16    6.94    0.87
   1  -7 -16    6.78    0.79
   1   7 -16    6.32    0.69
  -1   7  16    6.26    0.69
   1   7 -16    6.49    0.80
  -1  -7  16    6.16    0.69
   0   7 -16    0.36    0.34
   0   7 -16    0.35    0.31
   0  -7  16   -0.23    0.21
   0   7  16    0.04    0.22
   0   7  16   -0.45    0.32
   0  -7 -16   -0.44    0.27
  -1   7 -16    6.50    0.73
  -1   7 -16    5.59    0.71
   1   7  16    5.82    0.77
   1  -7  16    4.52    0.62
  -1  -7 -16    4.92    0.74
   2  -7  16    1.47    0.40
  -2  -7 -16    1.34    0.46
   2   7  16    1.06    0.42
  -2   7 -16    1.05    0.40
  -2   7 -16    1.54    0.46
  -3   7 -16    5.14    0.73
   3  -7  16    3.34    0.56
  -3  -7 -16    5.20    0.71
   3   7  16    3.98    0.67
  -4  -7 -16    4.72    0.73
  -4   7 -16    5.05    0.74
   4   7  16    5.39    0.81
   4  -7  16    3.42    0.61
   5   7  16    3.28    0.77
  -5  -7 -16    2.84    0.63
  -5   7 -16    3.24    0.67
   5  -7  16    3.68    0.60
   6  -7  16    3.06    0.61
  -6   7 -16    2.39    0.63
  -6   8  16    1.47    0.62
   6  -8 -16    1.04    0.56
  -5  -8  16    4.16    0.75
  -5   8  16    3.16    0.73
   5  -8 -16    2.85    0.64
  -4   8  16   -0.48    0.39
  -4  -8  16   -0.17    0.40
   4  -8 -16    0.32    0.37
  -4  -8  16    0.20    0.26
  -3   8  16    0.36    0.41
   3  -8 -16    0.83    0.38
  -3  -8  16    1.03    0.45
  -3  -8  16    0.91    0.33
   3  -8 -16    0.21    0.35
  -2   8  16    0.73    0.40
   2  -8 -16   -0.01    0.29
   2   8 -16    2.01    0.45
   2  -8 -16    1.66    0.45
  -2  -8  16    1.21    0.34
  -1   8  16    4.57    0.73
   1  -8 -16    3.85    0.67
   1  -8 -16    3.54    0.54
   1   8 -16    3.59    0.64
   1   8 -16    4.33    0.62
  -1  -8  16    3.93    0.55
   0   8 -16    1.32    0.41
   0   8  16    0.66    0.46
   0  -8  16    1.09    0.36
   0   8 -16    0.30    0.34
   0  -8 -16    1.31    0.45
   1  -8  16    0.28    0.29
  -1   8 -16    0.78    0.37
  -1   8 -16    0.51    0.32
  -1  -8 -16    0.61    0.39
   1   8  16    0.61    0.42
  -2  -8 -16    6.43    0.83
  -2   8 -16    7.28    0.87
  -2   8 -16    5.08    0.72
   2   8  16    7.73    0.91
   2  -8  16    6.32    0.74
   3  -8  16    0.66    0.33
  -3  -8 -16    0.21    0.37
  -3   8 -16    0.45    0.41
   3   8  16    0.42    0.42
   4   8  16    1.38    0.58
   4  -8  16    2.35    0.50
  -4  -8 -16    2.10    0.56
  -4   8 -16    2.18    0.53
  -5  -8 -16    1.37    0.55
  -5   8 -16    2.12    0.54
   5   8  16    0.66    0.65
   5  -8  16    1.77    0.49
  -6  -9  16    0.02    0.56
  -5   9  16    1.47    0.67
  -5  -9  16    3.22    0.73
   5  -9 -16    2.24    0.63
  -4   9  16    2.78    0.69
   4  -9 -16    3.88    0.66
  -4  -9  16    3.27    0.73
  -3  -9  16    0.42    0.44
   3  -9 -16    0.92    0.41
  -3  -9  16   -0.13    0.22
   3  -9 -16    1.25    0.44
  -3   9  16    0.84    0.45
   3   9 -16    0.42    0.36
   2  -9 -16    3.22    0.60
  -2   9  16    2.27    0.57
   2  -9 -16    2.25    0.49
  -2  -9  16    2.84    0.62
  -2  -9  16    1.94    0.43
   2   9 -16    2.64    0.54
   1  -9 -16    3.35    0.63
  -1   9  16    2.91    0.62
  -1  -9  16    2.58    0.48
   1   9 -16    2.21    0.50
   1  -9 -16    2.59    0.47
   0   9  16   -0.07    0.40
   0   9 -16    0.90    0.38
   0   9 -16    0.15    0.30
   0  -9 -16    0.16    0.32
   0  -9  16    0.08    0.26
  -1   9 -16    0.07    0.34
  -1  -9 -16    0.88    0.41
  -1   9 -16    0.44    0.38
   1   9  16    0.82    0.45
   1  -9  16    0.22    0.29
  -2   9 -16    0.56    0.39
  -2   9 -16    1.44    0.45
   2   9  16    0.40    0.41
  -2  -9 -16    0.35    0.43
   2  -9  16    0.64    0.35
  -3  -9 -16    0.53    0.45
   3  -9  16    0.41    0.32
   3   9  16    0.06    0.40
  -3   9 -16   -0.40    0.35
  -4   9 -16    1.34    0.49
  -4  -9 -16    0.44    0.48
   4  -9  16    0.16    0.33
   4   9  16    1.10    0.58
  -5  -9 -16    0.85    0.56
  -5   9 -16    0.55    0.44
   5 -10 -16    0.25    0.50
  -5 -10  16    0.02    0.51
   4 -10 -16    4.05    0.72
   4  10 -16    3.06    0.62
  -4 -10  16    1.58    0.66
  -4  10  16    1.74    0.70
   3 -10 -16    4.56    0.69
  -3 -10  16    3.58    0.54
  -3  10  16    4.05    0.76
   3 -10 -16    3.15    0.60
  -3 -10  16    3.34    0.70
   3  10 -16    3.58    0.60
   2 -10 -16    0.73    0.38
   2 -10 -16    1.28    0.44
  -2 -10  16    1.41    0.38
  -2  10  16    0.58    0.43
  -2 -10  16    0.86    0.45
   2  10 -16    0.32    0.36
  -1  10  16    0.02    0.44
   1 -10 -16    0.26    0.36
   1  10 -16    0.25    0.37
  -1 -10  16    0.22    0.27
  -1 -10  16    0.10    0.37
   0 -10 -16    1.07    0.47
   0 -10  16    0.40    0.29
   0  10  16    0.06    0.43
   0  10 -16    0.96    0.42
  -1  10 -16    0.77    0.42
   1 -10  16    1.11    0.39
  -1 -10 -16    0.59    0.42
   1  10  16    0.43    0.46
  -1  10 -16    0.03    0.33
  -2 -10 -16    1.95    0.61
  -2  10 -16   -0.29    0.34
   2 -10  16    0.67    0.38
   2  10  16    1.02    0.55
  -2  10 -16    0.30    0.38
   3 -10  16    0.63    0.37
  -3  10 -16    0.15    0.36
  -3 -10 -16   -0.09    0.44
   3  10  16   -0.11    0.44
  -4 -10 -16    0.28    0.50
   4  10  16    1.18    0.66
  -4  10 -16    0.81    0.46
   4 -10  16    0.46    0.34
   4  11 -16    3.41    0.64
   4 -11 -16    3.62    0.71
  -4  11  16    3.72    0.69
  -4 -11  16    2.57    0.75
  -3 -11  16    0.37    0.49
  -3  11  16    0.37    0.42
   3  11 -16    0.44    0.41
   3 -11 -16    0.66    0.43
   2 -11 -16    5.67    0.82
  -2 -11  16    3.67    0.71
   2  11 -16    5.26    0.75
  -2 -11  16    3.61    0.56
  -2  11  16    3.51    0.67
   1 -11 -16    3.27    0.70
  -1 -11  16    2.84    0.63
   1  11 -16    3.87    0.64
  -1  11  16    2.78    0.69
  -1 -11  16    2.75    0.53
   0 -11  16    0.51    0.32
   0  11  16    0.30    0.53
   0 -11 -16    2.57    0.60
   0  11 -16    0.75    0.41
   0 -11  16    0.44    0.39
  -1 -11 -16    7.12    0.90
   1 -11  16    4.48    0.69
  -1  11 -16    5.19    0.78
  -1  11 -16    4.05    0.73
   1  11  16    6.20    0.94
  -2 -11 -16    2.21    0.69
  -2  11 -16    1.29    0.53
   2  11  16    1.27    0.65
   2 -11  16    1.21    0.46
  -3  11 -16   -0.56    0.34
   3  11  16    0.70    0.54
   3 -11  16    0.49    0.40
  -3 -11 -16    0.27    0.47
  -4  11 -16    2.22    0.59
   4 -12 -16    2.24    0.67
   4  12 -16    2.59    0.62
   3  12 -16    6.42    0.83
  -3  12  16    5.14    0.85
  -3 -12  16    5.12    0.86
   2  12 -16    0.26    0.37
   2 -12 -16    0.63    0.46
  -2  12  16    1.22    0.46
  -2 -12  16    0.15    0.39
  -1  12  16    0.72    0.48
   1 -12 -16    1.64    0.55
  -1 -12  16   -0.09    0.33
  -1 -12  16    1.54    0.49
   1  12 -16    1.41    0.48
   0 -12  16    6.97    0.92
   0 -12  16    6.44    0.81
   0  12 -16    8.16    0.96
   0  12  16    8.48    1.07
   0 -12 -16    8.00    1.02
   1  12  16    1.46    0.54
  -1 -12 -16    2.01    0.58
   1 -12  16    1.70    0.53
  -1  12 -16    1.11    0.55
  -1  12 -16    2.26    0.58
  -2  12 -16    2.33    0.60
   2  12  16    3.33    0.69
   2 -12  16    1.23    0.50
  -2 -12 -16    2.29    0.60
  -3  12 -16    0.53    0.45
   3  13 -16    2.13    0.57
  -2 -13  16    1.24    0.51
   2 -13 -16    1.34    0.54
   2  13 -16    0.86    0.43
   1 -13 -16    1.01    0.52
   1  13 -16    0.64    0.38
  -1 -13  16    0.34    0.39
  -1  13  16    0.47    0.49
  -1 -13  16    0.74    0.46
   0  13 -16    1.24    0.47
   0 -13  16    0.08    0.37
   0 -13 -16    1.16    0.52
   0  13  16    0.63    0.49
   0 -13  16    0.71    0.43
   1 -13  16    1.34    0.53
  -1 -13 -16    1.90    0.60
  -1  13 -16    2.33    0.59
  -2  13 -16    0.08    0.43
   2 -14 -16    2.38    0.67
   1 -14 -16   -0.06    0.47
   0 -14  16   -0.56    0.42
   0 -14  16    0.25    0.41
   7   0 -17    0.48    0.34
  -7   0  17   -0.42    0.50
   6   0 -17   -0.27    0.32
  -6   0  17   -0.48    0.38
   5   0 -17    0.26    0.30
  -5   0  17   -0.07    0.24
  -5   0  17   -0.62    0.36
  -4   0  17    0.15    0.23
  -4   0  17   -0.03    0.33
   4   0 -17    0.47    0.31
  -3   0  17   -0.26    0.20
  -3   0  17   -0.47    0.25
   3   0 -17    0.09    0.25
   2   0 -17    0.14    0.25
  -2   0  17   -0.18    0.19
   1   0 -17    2.75    0.50
   0   0  17    0.15    0.24
   0   0 -17    0.54    0.33
   1   0  17    0.49    0.23
  -1   0 -17    0.41    0.34
   2   0  17    0.34    0.23
  -2   0 -17    0.72    0.35
  -3   0 -17    0.14    0.28
   3   0  17    0.25    0.24
  -4   0 -17    0.81    0.37
   4   0  17   -0.02    0.26
   7  -1 -17    3.24    0.65
  -7   1  17    2.33    0.73
   7   1 -17    2.49    0.56
  -6   1  17   -0.03    0.40
  -6  -1  17   -0.04    0.27
   6  -1 -17   -0.12    0.30
  -5  -1  17    0.10    0.24
   5   1 -17    0.74    0.29
   5  -1 -17   -0.16    0.27
  -5   1  17   -0.46    0.33
  -5   1  17   -0.03    0.24
  -4   1  17   -0.08    0.31
   4   1 -17    0.04    0.28
  -4   1  17    0.41    0.28
   4  -1 -17    0.79    0.31
  -4  -1  17    0.25    0.27
  -3   1  17   -0.08    0.29
  -3  -1  17    0.01    0.21
   3   1 -17    0.07    0.25
   3  -1 -17    0.03    0.24
  -3   1  17   -0.12    0.23
  -2   1  17    0.76    0.39
   2  -1 -17    0.52    0.29
  -2  -1  17    0.74    0.28
  -2   1  17    0.36    0.27
   2   1 -17    1.11    0.34
  -1  -1  17   16.40    1.22
   1  -1 -17   16.60    1.32
   1   1 -17   16.92    1.31
  -1   1  17   16.29    1.25
  -1   1  17   16.72    1.22
   0  -1  17    1.00    0.31
   0   1  17    1.11    0.38
   0   1  17    1.56    0.35
   0   1 -17    1.45    0.41
   0  -1 -17    1.36    0.42
  -1  -1 -17    2.23    0.48
   1   1  17    1.56    0.35
   1  -1  17    1.85    0.37
  -1   1 -17    2.52    0.50
  -2  -1 -17    2.57    0.49
   2   1  17    2.31    0.44
  -2   1 -17    2.43    0.48
   2   1  17    2.34    0.39
   2  -1  17    2.41    0.42
  -3   1 -17    0.97    0.35
   3   1  17    0.93    0.38
   3  -1  17    0.93    0.30
  -3  -1 -17    0.31    0.32
   3   1  17    0.55    0.28
  -4   1 -17    2.49    0.51
  -4  -1 -17    2.16    0.49
   4  -1  17    2.72    0.45
  -7   1 -17    1.56    0.64
   7  -2 -17    3.68    0.70
   7   2 -17    4.19    0.66
  -7   2  17    1.63    0.65
  -6   2  17    1.98    0.56
  -6  -2  17    1.87    0.46
   6  -2 -17    2.78    0.59
  -5   2  17    1.71    0.49
   5   2 -17    1.99    0.47
  -5  -2  17    1.81    0.41
  -4   2  17   -0.41    0.29
  -4  -2  17    0.23    0.24
   4   2 -17    0.35    0.31
   4  -2 -17    0.37    0.28
  -4   2  17   -0.21    0.20
   3  -2 -17    0.68    0.30
  -3   2  17    0.80    0.33
  -3  -2  17    0.47    0.27
   3   2 -17    0.75    0.34
  -3   2  17    0.61    0.36
   2  -2 -17    7.19    0.76
  -2  -2  17    7.13    0.71
  -2   2  17    9.99    0.80
  -2   2  17    7.42    0.77
   2   2 -17    8.26    0.82
  -1  -2  17    2.91    0.46
  -1   2  17    2.67    0.45
   1   2 -17    3.00    0.54
   0  -2 -17    0.16    0.31
   0   2 -17    0.58    0.32
   0  -2  17    0.26    0.20
   0   2  17    0.68    0.26
   0   2  17    0.26    0.30
   1  -2  17    6.86    0.67
   1   2  17    6.86    0.66
  -1   2 -17    6.74    0.77
   1   2  17    7.08    0.74
  -1  -2 -17    6.94    0.79
  -2   2 -17    1.30    0.40
  -2  -2 -17    1.33    0.40
   2   2  17    0.92    0.28
   2   2  17    1.25    0.37
   2  -2  17    1.90    0.39
  -3  -2 -17    2.86    0.52
  -3   2 -17    3.16    0.53
   3  -2  17    3.31    0.49
   3   2  17    3.30    0.58
   3   2  17    3.51    0.46
   4  -2  17    4.81    0.67
   4   2  17    6.91    0.84
  -4  -2 -17    6.87    0.76
   5  -2  17    2.27    0.45
  -5   2 -17    1.86    0.54
   5   2  17    2.09    0.54
  -6   2 -17   -0.45    0.36
   6   2  17   -0.25    0.48
  -7   3  17   -0.44    0.54
   7  -3 -17    0.73    0.40
   7   3 -17    0.79    0.39
  -6   3  17    0.93    0.49
   6  -3 -17    0.95    0.44
  -6  -3  17    1.31    0.41
  -5  -3  17    0.51    0.28
   5  -3 -17    0.20    0.32
  -5   3  17   -0.50    0.30
   5   3 -17    0.96    0.38
  -4   3  17    0.19    0.26
  -4   3  17    0.07    0.36
   4  -3 -17    0.34    0.29
   4   3 -17    0.31    0.30
  -4  -3  17    0.36    0.27
  -3   3  17    0.76    0.33
   3  -3 -17    1.04    0.33
   3   3 -17    0.68    0.36
  -3  -3  17    0.63    0.30
  -3   3  17   -0.10    0.35
  -2  -3  17    4.84    0.58
  -2   3  17    4.93    0.61
   2   3 -17    4.62    0.66
  -2   3  17    4.76    0.64
   2  -3 -17    4.21    0.61
   1  -3 -17    3.98    0.60
  -1   3  17    4.57    0.56
  -1   3  17    4.56    0.59
   1   3 -17    4.09    0.63
  -1  -3  17    3.01    0.49
   0   3 -17    2.91    0.55
   0   3  17    3.28    0.48
   0  -3  17    2.91    0.46
   0   3  17    3.44    0.55
   0  -3 -17    3.37    0.55
  -1   3 -17    0.00    0.30
   1   3  17    0.24    0.22
   1  -3  17   -0.20    0.21
   1   3  17    0.11    0.34
  -1  -3 -17    0.29    0.32
  -2   3 -17   14.78    1.17
   2  -3  17   13.19    1.05
  -2  -3 -17   12.97    1.14
   2   3  17   13.50    1.01
   2   3  17   12.44    1.08
  -3  -3 -17    0.06    0.31
  -3   3 -17    0.48    0.33
   3  -3  17    0.22    0.26
   3   3  17    0.34    0.37
  -4   3 -17    1.25    0.45
   4  -3  17    1.28    0.40
  -4  -3 -17    1.50    0.43
   4   3  17    1.13    0.47
   5   3  17    8.14    0.96
  -5   3 -17    7.79    0.97
   5  -3  17    7.15    0.81
   6   3  17    1.04    0.63
  -6   3 -17    1.25    0.50
  -7   4  17   -0.16    0.52
   6  -4 -17   -0.47    0.33
   6   4 -17    0.72    0.42
  -6  -4  17    0.31    0.32
  -6   4  17    0.42    0.47
   5   4 -17    0.83    0.36
  -5   4  17   -0.09    0.37
  -5  -4  17   -0.04    0.23
   5  -4 -17   -0.57    0.29
  -4   4  17    0.73    0.40
   4   4 -17    1.73    0.45
  -4  -4  17    0.99    0.34
   4  -4 -17    0.94    0.34
   3   4 -17   -0.03    0.28
  -3   4  17   -0.08    0.26
   3  -4 -17    0.61    0.29
  -3  -4  17    0.10    0.24
  -3   4  17   -0.33    0.31
  -2   4  17    0.11    0.33
   2   4 -17    0.12    0.29
   2  -4 -17    1.06    0.33
  -2   4  17    0.08    0.27
  -2  -4  17    0.16    0.26
  -1  -4  17    0.68    0.29
  -1   4  17    0.43    0.34
   1   4 -17    0.24    0.32
  -1   4  17    0.15    0.26
   1  -4 -17    0.15    0.30
   0   4 -17    0.32    0.33
   0  -4 -17   -0.33    0.25
   0   4  17    0.18    0.24
   0   4  17    0.06    0.32
   0  -4  17    0.27    0.24
   1   4  17    0.35    0.35
  -1  -4 -17    0.62    0.35
   1  -4  17    0.33    0.27
   1   4  17    0.32    0.23
  -1   4 -17    0.48    0.31
   2   4  17    0.67    0.34
   2  -4  17    0.46    0.28
  -2  -4 -17    1.01    0.38
  -2   4 -17    0.90    0.37
   3  -4  17    0.47    0.29
   3   4  17    0.60    0.38
  -3   4 -17    0.38    0.34
  -3   4 -17    0.69    0.35
  -3  -4 -17    0.57    0.36
   4  -4  17    0.21    0.27
  -4  -4 -17    0.20    0.35
   4   4  17    0.08    0.40
  -4   4 -17   -0.01    0.32
  -5   4 -17    0.82    0.46
   5   4  17    1.08    0.52
   5  -4  17    0.65    0.33
  -6   4 -17    0.79    0.45
   6   4  17    0.76    0.63
   6  -4  17    1.07    0.39
   6  -5 -17    1.86    0.52
   6   5 -17    1.99    0.49
  -6  -5  17    1.55    0.43
  -6   5  17    0.97    0.60
   5  -5 -17    0.43    0.44
  -5  -5  17    0.67    0.32
  -5   5  17    0.71    0.44
   5   5 -17    1.27    0.43
   4  -5 -17    6.75    0.82
   4  -5 -17    5.74    0.72
  -4  -5  17    5.66    0.67
  -4   5  17    5.19    0.74
   4   5 -17    6.10    0.78
  -3  -5  17    1.90    0.39
   3  -5 -17    0.94    0.37
  -3   5  17    2.57    0.48
   3   5 -17    1.94    0.46
  -3   5  17    0.85    0.42
   2  -5 -17    4.57    0.69
  -2   5  17    6.20    0.77
  -2   5  17    7.36    0.74
  -2  -5  17    6.19    0.67
   2   5 -17    6.36    0.78
   1  -5 -17    2.08    0.49
   1   5 -17    2.03    0.51
  -1   5  17    2.27    0.52
  -1   5  17    2.70    0.46
  -1  -5  17    2.52    0.44
   0   5  17    0.76    0.40
   0  -5 -17    0.49    0.34
   0   5  17    0.49    0.27
   0   5 -17    1.51    0.43
   0  -5  17    0.97    0.34
  -1  -5 -17   -0.37    0.27
   1   5  17   -0.36    0.19
  -1   5 -17    0.17    0.32
   1  -5  17   -0.07    0.24
   1   5  17   -0.07    0.34
   2  -5  17   17.09    1.30
   2   5  17   18.21    1.41
  -2   5 -17   16.49    1.39
  -2  -5 -17   16.91    1.40
  -2   5 -17   18.62    1.42
  -3   5 -17    0.79    0.39
   3   5  17    1.37    0.43
  -3  -5 -17    1.14    0.43
   3  -5  17    0.86    0.32
  -3   5 -17    1.18    0.41
   4  -5  17    2.65    0.52
  -4   5 -17    2.36    0.56
   4   5  17    1.74    0.57
  -4  -5 -17    2.79    0.57
  -5   5 -17    7.46    0.94
  -5  -5 -17    6.76    0.85
   5   5  17    7.92    1.04
   5  -5  17    7.14    0.82
   6   5  17    0.21    0.58
  -6   5 -17    0.45    0.42
   6  -5  17   -0.07    0.30
   6  -6 -17    1.25    0.62
  -6   6  17   -0.37    0.51
   6   6 -17    1.24    0.48
   5  -6 -17    3.80    0.73
  -5  -6  17    4.55    0.61
   5   6 -17    5.86    0.79
  -5   6  17    3.77    0.73
  -4   6  17    1.21    0.48
   4  -6 -17    1.03    0.42
   4   6 -17    2.06    0.51
   4  -6 -17    1.54    0.51
  -4  -6  17    1.26    0.35
  -3   6  17    4.23    0.63
   3  -6 -17    3.61    0.61
  -3  -6  17    2.96    0.48
   3  -6 -17    2.68    0.53
   3   6 -17    2.99    0.61
   2  -6 -17    1.80    0.44
  -2   6  17    1.67    0.42
  -2  -6  17    0.70    0.31
  -2   6  17    0.22    0.37
   2   6 -17    1.47    0.43
   1  -6 -17    0.78    0.36
  -1   6  17    1.00    0.41
   1   6 -17    0.24    0.35
  -1   6  17    0.59    0.31
  -1  -6  17    0.83    0.31
   0   6 -17    2.71    0.53
   0  -6  17    2.11    0.44
   0   6  17    2.36    0.41
   0  -6 -17    2.20    0.54
   0   6  17    2.54    0.55
  -1   6 -17   18.34    1.46
  -1  -6 -17   19.23    1.49
  -1   6 -17   19.73    1.45
   1   6  17   17.77    1.48
   1  -6  17   16.09    1.32
   2   6  17    0.84    0.37
   2  -6  17    0.48    0.30
  -2  -6 -17    0.18    0.35
  -2   6 -17    0.56    0.38
  -2   6 -17    0.15    0.32
   3   6  17    3.88    0.65
  -3  -6 -17    3.58    0.63
   3  -6  17    2.93    0.54
  -3   6 -17    3.06    0.60
  -4   6 -17    3.84    0.66
  -4  -6 -17    2.98    0.62
   4   6  17    4.97    0.78
   4  -6  17    3.23    0.57
   5   6  17   -0.07    0.59
  -5  -6 -17    0.59    0.45
   5  -6  17    0.34    0.36
  -5   6 -17    0.14    0.36
  -6   6 -17   -0.17    0.42
   6  -6  17    0.32    0.36
   6   7 -17    0.89    0.43
   6  -7 -17   -0.25    0.47
  -6   7  17    0.05    0.55
  -5   7  17    0.44    0.49
  -5  -7  17    0.20    0.30
   5  -7 -17    0.81    0.51
   5   7 -17    1.93    0.49
   4   7 -17    0.75    0.36
  -4   7  17    0.04    0.44
  -4  -7  17    0.57    0.30
   4  -7 -17    0.80    0.41
   3   7 -17    0.09    0.28
   3  -7 -17    0.16    0.34
  -3   7  17    0.35    0.35
  -3  -7  17   -0.24    0.20
   3  -7 -17   -0.08    0.34
   2   7 -17    0.16    0.31
  -2   7  17    0.14    0.35
  -2  -7  17   -0.13    0.22
   2  -7 -17    0.32    0.34
   1  -7 -17   10.51    0.98
  -1  -7  17    9.61    0.87
   1   7 -17    9.80    0.98
  -1   7  17    8.76    0.96
  -1   7  17   10.33    0.88
   0   7  17    0.20    0.27
   0  -7 -17   -0.49    0.27
   0   7 -17    0.12    0.30
   0   7 -17    0.36    0.33
   0   7  17    0.53    0.43
   0  -7  17    0.07    0.26
  -1  -7 -17    0.82    0.45
  -1   7 -17    1.53    0.45
   1  -7  17    1.79    0.41
   1   7  17    1.85    0.52
  -1   7 -17    1.27    0.43
  -2   7 -17    1.74    0.44
  -2   7 -17    2.25    0.51
   2   7  17    0.92    0.44
   2  -7  17    1.39    0.42
  -2  -7 -17    1.74    0.53
  -3   7 -17    0.73    0.44
   3  -7  17    1.11    0.39
  -3  -7 -17    0.36    0.41
   3   7  17    0.66    0.41
   4   7  17    1.72    0.60
  -4   7 -17    0.86    0.46
  -4  -7 -17    1.08    0.50
   4  -7  17    0.86    0.37
   5   7  17   -0.30    0.55
  -5  -7 -17    0.77    0.52
   5  -7  17    0.65    0.37
  -5   7 -17    1.01    0.46
   6   8 -17    1.31    0.47
   5   8 -17   -0.17    0.33
  -5   8  17    0.26    0.54
   5  -8 -17   -0.07    0.43
  -4   8  17    1.64    0.59
  -4  -8  17    0.88    0.33
   4  -8 -17    1.05    0.48
   3  -8 -17    4.20    0.65
   3   8 -17    3.11    0.60
  -3  -8  17    3.64    0.54
   3  -8 -17    4.11    0.64
  -3   8  17    3.09    0.66
   2  -8 -17    0.79    0.39
  -2  -8  17    0.17    0.22
   2  -8 -17    0.09    0.31
   2   8 -17   -0.13    0.33
  -2   8  17    0.35    0.38
  -1   8  17   -0.01    0.40
   1   8 -17    0.29    0.30
   1   8 -17    0.13    0.35
   1  -8 -17    0.29    0.38
  -1  -8  17    0.11    0.26
   0  -8  17   -0.42    0.22
   0   8 -17    0.30    0.32
   0   8 -17    0.32    0.33
   0   8  17    0.42    0.40
   0  -8 -17    0.55    0.37
   1  -8  17    1.98    0.46
  -1   8 -17    2.53    0.53
  -1  -8 -17    3.00    0.59
  -1   8 -17    2.82    0.55
   1   8  17    2.57    0.60
  -2   8 -17    1.11    0.45
  -2   8 -17    0.71    0.39
  -2  -8 -17    0.69    0.44
   2   8  17    1.12    0.47
   2  -8  17    0.48    0.33
   3   8  17    0.70    0.45
  -3   8 -17    0.72    0.47
   3  -8  17    1.05    0.38
  -3  -8 -17    0.37    0.42
   4  -8  17    0.48    0.32
  -4  -8 -17    0.70    0.46
  -4   8 -17    0.48    0.40
   4   8  17    0.03    0.48
  -5  -8 -17    1.17    0.56
  -5   8 -17    0.81    0.47
  -5   9  17   -0.15    0.54
   5  -9 -17   -0.02    0.42
  -4  -9  17    5.12    0.85
   4  -9 -17    5.35    0.79
  -4   9  17    5.33    0.91
   3  -9 -17    0.47    0.38
   3  -9 -17    1.24    0.43
  -3  -9  17    0.40    0.28
  -3   9  17   -0.64    0.42
   2  -9 -17    0.19    0.32
   2  -9 -17    1.34    0.44
  -2  -9  17    0.19    0.26
  -2   9  17    0.20    0.38
   1   9 -17    0.46    0.39
  -1   9  17    0.89    0.50
  -1  -9  17    0.24    0.29
   1   9 -17    1.20    0.42
   1  -9 -17    1.13    0.43
   0  -9  17    1.93    0.46
   0   9  17    1.74    0.56
   0   9 -17    1.58    0.47
   0   9 -17    1.75    0.49
   0  -9 -17    2.37    0.57
   1   9  17    0.79    0.47
  -1   9 -17    0.44    0.36
  -1   9 -17    0.43    0.40
   1  -9  17    0.29    0.30
  -1  -9 -17    1.34    0.48
  -2  -9 -17    5.20    0.83
  -2   9 -17    3.92    0.67
   2  -9  17    3.88    0.64
  -2   9 -17    5.40    0.77
   2   9  17    5.90    0.87
  -3   9 -17    0.39    0.41
   3   9  17    0.62    0.50
   3  -9  17   -0.18    0.27
  -3  -9 -17    0.32    0.47
  -4  -9 -17    1.88    0.62
   4  -9  17    2.15    0.51
   4   9  17    2.36    0.75
  -4   9 -17    1.73    0.57
  -4  10  17    2.98    0.79
   4 -10 -17    1.72    0.59
  -4 -10  17    2.68    0.74
  -3 -10  17   -0.42    0.43
  -3 -10  17    0.14    0.28
  -3  10  17    0.49    0.50
   3 -10 -17    1.46    0.51
   3 -10 -17    0.67    0.41
   2  10 -17    3.64    0.64
   2 -10 -17    4.50    0.73
  -2 -10  17    4.15    0.70
  -2  10  17    3.85    0.76
   2 -10 -17    3.90    0.61
  -2 -10  17    3.28    0.54
   1  10 -17    0.67    0.42
   1 -10 -17    1.05    0.44
  -1 -10  17    0.52    0.32
  -1  10  17   -0.22    0.46
   0 -10 -17    1.52    0.53
   0  10 -17    0.42    0.42
   0 -10  17    1.09    0.38
   0  10  17    1.48    0.60
   0  10 -17    1.53    0.47
  -1  10 -17    8.44    0.99
  -1  10 -17    6.39    0.89
  -1 -10 -17    7.60    0.99
   1 -10  17    7.91    0.89
   1  10  17    9.12    1.09
  -2  10 -17    1.61    0.53
   2  10  17    3.19    0.74
   2 -10  17    2.94    0.58
  -2 -10 -17    2.28    0.67
  -2  10 -17    2.65    0.58
   3 -10  17   -0.06    0.34
  -3  10 -17    0.05    0.38
  -3 -10 -17    0.06    0.51
   3  10  17    0.02    0.55
  -4  10 -17    2.08    0.60
  -4 -10 -17    4.56    0.81
   4 -11 -17    0.63    0.57
  -3  11  17    0.54    0.63
   3 -11 -17    0.02    0.45
   3  11 -17    0.91    0.42
  -3 -11  17    0.27    0.52
  -2 -11  17    0.91    0.37
  -2 -11  17    0.60    0.40
   2  11 -17    1.62    0.50
  -2  11  17    0.45    0.59
   2 -11 -17    1.30    0.51
   1  11 -17    0.26    0.35
  -1 -11  17    0.49    0.39
  -1 -11  17   -0.08    0.29
   1 -11 -17   -0.11    0.41
  -1  11  17    0.22    0.57
   0  11  17   -0.35    0.58
   0 -11 -17    0.68    0.44
   0 -11  17    0.58    0.39
   0  11 -17    0.48    0.46
   0  11 -17    0.54    0.39
   1 -11  17   -0.05    0.36
  -1  11 -17    0.14    0.41
  -1  11 -17    0.35    0.45
   1  11  17    0.01    0.56
  -1 -11 -17   -0.06    0.39
   2  11  17    3.17    0.81
  -2  11 -17    3.16    0.61
  -2 -11 -17    1.15    0.63
   2 -11  17    2.57    0.60
  -3  11 -17    1.65    0.56
  -3 -11 -17    1.68    0.66
   4 -12 -17    0.58    0.54
   3  12 -17    0.89    0.44
  -2  12  17    2.25    0.59
   2  12 -17    2.19    0.57
  -2 -12  17    1.51    0.56
   2 -12 -17    3.69    0.71
  -1  12  17    0.62    0.46
   1 -12 -17    1.04    0.47
  -1 -12  17    0.35    0.42
  -1 -12  17    0.27    0.37
   1  12 -17    0.59    0.39
   0  12  17    1.61    0.59
   0 -12 -17    1.16    0.51
   0  12 -17    0.94    0.46
   0 -12  17    1.25    0.47
   1 -12  17    1.33    0.51
  -1  12 -17    0.10    0.48
  -1  12 -17    0.53    0.46
   1  12  17    0.37    0.63
  -1 -12 -17    1.12    0.53
   2 -12  17    0.09    0.38
  -2  12 -17    0.55    0.45
   2 -13 -17    1.76    0.56
   2  13 -17    1.68    0.55
  -1 -13  17    1.47    0.58
   1 -13 -17    1.96    0.59
  -1 -13  17    1.70    0.51
   1  13 -17    2.10    0.55
   0  13 -17    1.15    0.49
   0 -13  17   -0.17    0.36
   0 -13 -17   -0.37    0.42
  -1  13 -17   -0.28    0.47
  -1  13 -17    0.85    0.52
   7   0 -18    4.93    0.78
   5   0 -18    5.31    0.72
  -5   0  18    5.46    0.71
  -4   0  18    1.95    0.44
   4   0 -18    1.89    0.45
   3   0 -18    1.30    0.37
  -3   0  18    0.34    0.27
  -2   0  18    6.07    0.69
   2   0 -18    5.79    0.71
   1   0 -18   36.12    2.50
  -1   0  18   35.73    2.31
   0   0 -18    3.27    0.57
   0   0  18    2.88    0.47
   1   0  18    2.43    0.42
  -1   0 -18    2.73    0.53
   2   0  18    1.02    0.31
  -2   0 -18    1.35    0.44
  -3   0 -18    1.58    0.42
   3   0  18    2.08    0.41
   4   0  18    5.06    0.60
  -4   0 -18    2.87    0.56
   7   1 -18    0.20    0.37
  -7   1  18    0.56    0.59
   7  -1 -18    1.35    0.49
  -6   1  18   -0.09    0.43
   6  -1 -18    0.33    0.42
  -6  -1  18    0.02    0.31
   5  -1 -18    2.41    0.47
  -5   1  18    0.54    0.40
  -5   1  18    1.51    0.40
  -5  -1  18    0.46    0.33
   5   1 -18    1.36    0.41
  -4   1  18   -0.22    0.30
   4  -1 -18    0.93    0.33
  -4  -1  18    0.14    0.25
  -4   1  18    0.04    0.21
   4   1 -18    0.25    0.31
  -3   1  18    0.90    0.33
  -3  -1  18    0.54    0.30
   3   1 -18    0.95    0.34
   3  -1 -18    0.67    0.30
  -3   1  18    0.47    0.37
  -2   1  18    0.41    0.40
  -2   1  18    0.89    0.31
   2  -1 -18    2.21    0.45
   2   1 -18    0.10    0.25
  -2  -1  18    0.16    0.24
   1   1 -18   24.75    2.01
  -1  -1  18   26.32    1.88
   1  -1 -18   30.93    2.08
  -1   1  18   32.31    1.93
  -1   1  18   28.91    1.99
   0   1 -18    0.78    0.39
   0  -1 -18    1.11    0.42
   0  -1  18    0.60    0.28
   0   1  18    1.22    0.34
   1   1  18    8.68    0.77
  -1   1 -18    9.08    0.89
   1  -1  18    8.43    0.77
  -1  -1 -18    8.18    0.87
   2  -1  18    1.78    0.38
  -2   1 -18    0.66    0.36
   2   1  18    0.85    0.29
  -2  -1 -18    1.09    0.40
   3  -1  18    6.01    0.67
  -3  -1 -18    5.43    0.72
   3   1  18    6.84    0.68
  -3   1 -18    6.19    0.73
  -4  -1 -18    2.80    0.54
   4  -1  18    1.85    0.44
  -7   2  18    0.44    0.60
   7   2 -18    0.48    0.42
  -6  -2  18    0.50    0.37
  -6   2  18   -0.32    0.41
   6  -2 -18    0.45    0.40
  -5  -2  18    1.57    0.43
   5   2 -18    2.15    0.49
  -5   2  18    1.20    0.46
  -5   2  18    0.88    0.40
  -4   2  18    0.24    0.32
   4  -2 -18    0.24    0.26
   4   2 -18   -0.13    0.28
  -4  -2  18    0.04    0.21
  -4   2  18   -0.23    0.21
  -3  -2  18    0.34    0.27
   3   2 -18    0.22    0.32
  -3   2  18    1.15    0.37
  -3   2  18    0.67    0.37
   3  -2 -18    0.85    0.32
   2   2 -18    0.97    0.36
  -2   2  18    1.56    0.44
  -2   2  18    0.35    0.30
   2  -2 -18    0.85    0.36
  -2  -2  18    0.66    0.30
  -1  -2  18    6.49    0.74
   1   2 -18    7.14    0.85
  -1   2  18    9.77    0.80
   0   2  18    0.15    0.33
   0   2  18    0.41    0.25
   0   2 -18    0.51    0.34
   0  -2 -18    0.06    0.32
   0  -2  18    0.72    0.29
  -1  -2 -18    5.15    0.66
   1   2  18    4.73    0.55
  -1   2 -18    3.25    0.60
   1  -2  18    3.79    0.54
   1   2  18    4.84    0.64
   2  -2  18    0.32    0.25
  -2   2 -18    0.02    0.29
   2   2  18   -0.03    0.21
   2   2  18    0.06    0.28
  -2  -2 -18    0.41    0.31
  -3  -2 -18    2.24    0.46
  -3   2 -18    1.24    0.42
   3  -2  18    1.26    0.37
   3   2  18    1.83    0.46
   4  -2  18    1.13    0.38
  -4  -2 -18    1.28    0.42
   5  -2  18    0.29    0.29
   7   3 -18    0.54    0.42
  -6  -3  18    0.44    0.34
  -6   3  18    0.59    0.53
   6  -3 -18    1.22    0.48
   5  -3 -18    0.82    0.46
  -5  -3  18    0.58    0.35
  -5   3  18    0.47    0.40
   5   3 -18    1.40    0.41
   4  -3 -18    0.90    0.32
  -4  -3  18    0.16    0.26
   4   3 -18    0.91    0.36
  -4   3  18    0.35    0.33
  -4   3  18    0.79    0.33
  -3   3  18    0.21    0.28
   3   3 -18    0.86    0.34
  -3  -3  18   -0.17    0.23
  -3   3  18   -0.13    0.34
   3  -3 -18    0.67    0.31
   2   3 -18    3.41    0.59
  -2   3  18    3.13    0.56
  -2  -3  18    2.95    0.49
  -2   3  18    3.21    0.53
   2  -3 -18    3.54    0.56
  -1  -3  18    2.87    0.48
   1  -3 -18    3.03    0.54
   1   3 -18    3.32    0.60
  -1   3  18    3.18    0.50
  -1   3  18    3.28    0.52
   0  -3 -18    1.79    0.46
   0   3 -18    1.90    0.48
   0   3  18    2.49    0.43
   0   3  18    1.50    0.44
   0  -3  18    1.79    0.40
  -1  -3 -18    0.51    0.33
  -1   3 -18    0.55    0.34
   1  -3  18    0.34    0.26
   1   3  18    0.44    0.24
   1   3  18    0.93    0.38
   2   3  18    4.78    0.56
   2  -3  18    5.03    0.62
   2   3  18    4.29    0.65
  -2   3 -18    6.19    0.74
  -2  -3 -18    4.90    0.68
   3  -3  18    0.54    0.26
  -3   3 -18    0.75    0.39
   3   3  18    0.75    0.41
  -3  -3 -18    0.93    0.40
  -4  -3 -18    0.01    0.31
   4   3  18   -0.20    0.39
   4  -3  18    0.53    0.31
   5   3  18    3.44    0.69
   5  -3  18    3.21    0.56
   6   3  18    3.76    0.85
  -6  -4  18    0.77    0.40
   6  -4 -18    1.68    0.52
  -6   4  18    0.91    0.60
   6   4 -18    2.61    0.53
   5  -4 -18   -0.08    0.36
  -5   4  18   -0.55    0.37
  -5  -4  18   -0.05    0.26
   5   4 -18    0.73    0.37
   4   4 -18    1.41    0.42
  -4  -4  18    0.77    0.34
  -4   4  18    0.54    0.40
  -4   4  18    1.55    0.40
   4  -4 -18    0.65    0.33
   3   4 -18    0.26    0.30
   3  -4 -18   -0.04    0.31
  -3  -4  18    0.01    0.23
  -3   4  18    0.08    0.35
  -3   4  18   -0.11    0.25
   2   4 -18   12.12    1.04
  -2  -4  18    9.32    0.87
  -2   4  18    9.36    0.93
  -2   4  18   10.24    0.92
   2  -4 -18   10.27    0.95
  -1   4  18    4.05    0.63
  -1  -4  18    5.10    0.61
  -1   4  18    6.49    0.68
   1   4 -18    5.24    0.73
   1  -4 -18    5.51    0.71
   0   4 -18    4.75    0.67
   0  -4 -18    4.08    0.64
   0   4  18    4.51    0.67
   0  -4  18    5.37    0.62
   0   4  18    4.70    0.57
   1   4  18    1.85    0.49
  -1  -4 -18    1.50    0.46
   1  -4  18    1.65    0.41
  -1   4 -18    1.89    0.49
   1   4  18    1.64    0.37
  -2  -4 -18    5.24    0.74
  -2   4 -18    6.73    0.79
   2  -4  18    6.76    0.72
   2   4  18    5.80    0.77
   3  -4  18    0.69    0.32
  -3  -4 -18    0.47    0.40
   3   4  18    1.14    0.47
  -3   4 -18    0.80    0.40
   4  -4  18    7.89    0.84
   4   4  18    6.11    0.90
  -4  -4 -18    8.45    0.89
   5   4  18    0.85    0.59
  -5   4 -18    1.41    0.54
   5  -4  18    1.41    0.44
   6  -4  18   -0.04    0.31
  -6   4 -18   -0.52    0.39
   6   4  18   -0.18    0.61
  -6   5  18    0.85    0.58
  -6  -5  18    0.83    0.37
   6  -5 -18   -0.05    0.41
   6   5 -18    1.33    0.42
  -5  -5  18    0.06    0.27
   5  -5 -18   -0.44    0.37
  -5   5  18   -0.23    0.39
   5   5 -18    0.77    0.38
   4  -5 -18    0.86    0.43
  -4  -5  18    1.19    0.34
   4  -5 -18    0.82    0.36
   4   5 -18    0.85    0.42
  -4   5  18    0.37    0.40
  -3   5  18    0.52    0.32
   3   5 -18    0.45    0.33
   3  -5 -18    0.56    0.31
  -3  -5  18    0.45    0.28
  -3   5  18   -0.22    0.32
  -2   5  18   -0.16    0.29
  -2   5  18    0.19    0.35
   2   5 -18    0.10    0.31
  -2  -5  18   -0.06    0.24
   2  -5 -18    0.32    0.33
  -1   5  18   10.43    0.89
  -1   5  18    9.21    0.93
  -1  -5  18    9.27    0.84
   1   5 -18   11.12    1.02
   1  -5 -18    9.59    0.95
   0   5  18    0.44    0.39
   0  -5 -18    0.47    0.34
   0  -5  18    0.82    0.32
   0   5 -18    0.40    0.35
   0   5  18    0.91    0.32
   1   5  18    1.76    0.38
  -1   5 -18    1.40    0.44
   1   5  18    2.12    0.53
   1  -5  18    1.66    0.41
  -1  -5 -18    1.25    0.45
  -2  -5 -18   -0.11    0.29
  -2   5 -18   -0.01    0.32
   2  -5  18    0.37    0.29
   2   5  18    0.43    0.37
  -3   5 -18    1.57    0.49
   3  -5  18    1.18    0.40
   3   5  18    1.21    0.45
  -3  -5 -18    1.28    0.45
  -4   5 -18    0.99    0.42
   4  -5  18    0.37    0.30
  -4  -5 -18    0.28    0.37
   4   5  18    0.22    0.46
  -5   5 -18    2.96    0.65
  -5  -5 -18    3.13    0.66
   5   5  18    2.17    0.70
   5  -5  18    2.80    0.56
   6  -5  18    0.26    0.35
  -6   5 -18    0.84    0.53
   6   6 -18    0.77    0.46
   6  -6 -18   -0.11    0.51
  -6   6  18    0.64    0.57
   5   6 -18    0.17    0.35
  -5   6  18    0.46    0.48
   5  -6 -18    0.28    0.47
  -5  -6  18   -0.07    0.27
   4  -6 -18    0.87    0.44
  -4  -6  18    0.23    0.29
   4  -6 -18   -0.11    0.30
  -4   6  18    0.52    0.42
   4   6 -18    0.62    0.38
  -3   6  18    1.36    0.47
   3  -6 -18    1.27    0.37
  -3  -6  18    1.67    0.39
   3   6 -18    1.68    0.46
  -2  -6  18    0.47    0.30
  -2   6  18    0.24    0.31
   2   6 -18    0.45    0.31
  -2   6  18    0.13    0.31
   2  -6 -18    0.36    0.31
  -1  -6  18    0.83    0.32
   1   6 -18    0.55    0.37
   1  -6 -18    0.90    0.37
  -1   6  18    0.41    0.39
  -1   6  18    0.62    0.34
   0   6 -18    1.54    0.47
   0   6  18    1.65    0.41
   0  -6  18    1.75    0.42
   0   6  18    1.71    0.50
   0  -6 -18    1.32    0.44
  -1   6 -18    0.59    0.37
   1   6  18    0.31    0.40
   1  -6  18    0.65    0.32
  -1  -6 -18    0.12    0.33
   2   6  18    1.09    0.47
   2  -6  18    1.36    0.43
  -2  -6 -18    1.98    0.49
  -2   6 -18    1.13    0.44
  -3   6 -18    0.23    0.36
  -3  -6 -18    0.23    0.39
   3   6  18   -0.17    0.33
   3  -6  18   -0.12    0.26
  -4  -6 -18    0.36    0.43
   4   6  18    0.32    0.49
  -4   6 -18    1.07    0.48
   4  -6  18    0.53    0.33
   5   6  18    1.46    0.68
  -5  -6 -18    0.97    0.53
   5  -6  18    1.45    0.44
  -5   6 -18    0.88    0.50
   6   7 -18    0.88    0.41
   5  -7 -18    1.52    0.60
  -5  -7  18    0.96    0.38
  -5   7  18    0.74    0.56
   5   7 -18    1.22    0.46
  -4  -7  18    0.04    0.27
   4   7 -18    0.35    0.37
   4  -7 -18    0.77    0.43
  -4   7  18   -0.06    0.41
   3  -7 -18    4.04    0.66
   3  -7 -18    4.18    0.67
  -3   7  18    3.57    0.66
  -3  -7  18    4.31    0.59
   3   7 -18    4.18    0.69
   2   7 -18    0.66    0.37
  -2   7  18    0.27    0.37
  -2  -7  18    0.26    0.24
   2  -7 -18    0.26    0.32
   1   7 -18    1.54    0.48
  -1  -7  18    1.62    0.42
  -1   7  18    2.22    0.43
   1  -7 -18    2.65    0.52
  -1   7  18    1.18    0.48
   0   7 -18    1.97    0.51
   0  -7  18    3.02    0.52
   0  -7 -18    2.54    0.53
   0   7  18    2.92    0.63
  -1  -7 -18    1.19    0.47
   1  -7  18    0.86    0.35
  -1   7 -18    0.72    0.40
   1   7  18    0.62    0.40
  -2   7 -18   10.30    1.02
  -2  -7 -18   11.02    1.07
   2   7  18   10.82    1.06
  -2   7 -18    9.44    0.99
   2  -7  18    9.67    0.93
   3   7  18    1.17    0.52
  -3  -7 -18    2.26    0.60
  -3   7 -18    1.70    0.50
   3  -7  18    2.04    0.48
   4  -7  18    0.43    0.37
  -4   7 -18    0.61    0.38
  -4  -7 -18    0.47    0.48
   4   7  18   -0.09    0.50
  -5  -7 -18    4.11    0.77
  -5   7 -18    3.57    0.74
  -5   8  18    1.39    0.67
   5  -8 -18    0.94    0.55
   5   8 -18    1.77    0.52
  -4   8  18    0.65    0.58
   4   8 -18    1.37    0.42
  -4  -8  18    1.31    0.40
   4  -8 -18    1.89    0.61
  -3  -8  18    0.19    0.27
   3  -8 -18    0.72    0.41
   3   8 -18   -0.04    0.29
  -3   8  18    0.56    0.47
   3  -8 -18   -0.16    0.35
  -2  -8  18    1.68    0.44
   2  -8 -18    1.51    0.45
   2  -8 -18    2.53    0.54
   2   8 -18    1.89    0.56
  -2   8  18    1.64    0.54
   1  -8 -18    0.80    0.37
   1   8 -18    0.51    0.39
  -1  -8  18    0.02    0.27
  -1   8  18    0.57    0.47
   0  -8  18    0.31    0.31
   0   8 -18    0.48    0.37
   0   8  18   -0.02    0.44
   0  -8 -18    0.20    0.37
  -1  -8 -18    7.43    0.90
  -1   8 -18    4.93    0.77
   1   8  18    6.02    0.89
  -1   8 -18    6.82    0.83
   1  -8  18    6.21    0.75
   2  -8  18    3.82    0.61
  -2   8 -18    4.25    0.67
  -2   8 -18    4.80    0.72
  -2  -8 -18    3.02    0.70
   2   8  18    3.10    0.72
   3   8  18   -0.26    0.41
  -3   8 -18    1.55    0.50
   3  -8  18    0.33    0.32
  -3  -8 -18    0.03    0.43
   4  -8  18    4.50    0.68
   4   8  18    4.62    0.88
  -4  -8 -18    3.90    0.76
  -4   8 -18    3.79    0.70
  -5  -8 -18    0.28    0.55
   5   9 -18    0.88    0.51
   4   9 -18    0.69    0.41
  -4  -9  18    0.53    0.33
  -4   9  18    1.27    0.64
   4  -9 -18    0.51    0.51
   3  -9 -18    3.22    0.62
   3  -9 -18    1.86    0.55
   3   9 -18    1.94    0.54
  -3   9  18    3.52    0.75
  -3  -9  18    2.53    0.50
   2  -9 -18    0.35    0.40
  -2   9  18   -0.11    0.44
   2  -9 -18   -0.27    0.27
  -2  -9  18    0.43    0.27
   2   9 -18    1.02    0.51
  -1   9  18    0.11    0.51
  -1  -9  18    1.01    0.40
   1  -9 -18    1.95    0.50
   1   9 -18    0.87    0.46
   0   9  18    0.39    0.50
   0  -9  18    1.15    0.40
   0  -9 -18   -0.12    0.35
   0   9 -18    0.35    0.38
   0   9 -18    0.82    0.42
   1   9  18    0.37    0.54
  -1   9 -18    2.85    0.58
  -1  -9 -18   -0.43    0.35
   1  -9  18    0.86    0.39
  -1   9 -18    2.45    0.51
  -2  -9 -18    2.07    0.65
   2  -9  18    2.56    0.57
  -2   9 -18    2.79    0.59
  -2   9 -18    1.51    0.52
   2   9  18    1.89    0.62
  -3  -9 -18    0.67    0.50
   3  -9  18    0.36    0.32
   3   9  18    0.59    0.53
  -3   9 -18    0.19    0.42
  -4  -9 -18    0.53    0.55
  -4   9 -18    1.19    0.48
   4 -10 -18    1.40    0.56
  -3  10  18   -0.23    0.52
   3 -10 -18    1.38    0.48
  -3 -10  18    0.47    0.35
   3 -10 -18    1.23    0.51
   2  10 -18    0.00    0.45
  -2 -10  18    0.50    0.32
   2 -10 -18    1.50    0.47
  -2  10  18    0.72    0.57
   1  10 -18    1.20    0.41
  -1 -10  18    0.09    0.34
  -1  10  18    0.42    0.55
   1  10 -18    0.43    0.47
   1 -10 -18    1.07    0.46
   0  10  18    1.65    0.67
   0 -10 -18    2.15    0.55
   0  10 -18    1.82    0.52
   0 -10  18    1.81    0.52
   0  10 -18    1.45    0.51
  -1  10 -18    0.77    0.44
   1 -10  18   -0.27    0.29
  -1  10 -18    0.06    0.41
  -1 -10 -18    0.69    0.44
   1  10  18    1.36    0.67
  -2  10 -18    1.05    0.46
  -2  10 -18    0.33    0.42
   2 -10  18    0.35    0.39
   2  10  18    1.20    0.62
  -2 -10 -18   -0.02    0.51
  -3 -10 -18    0.92    0.60
  -3  10 -18    0.88    0.40
   3 -10  18    1.05    0.48
   4 -11 -18    4.18    0.82
   3 -11 -18    0.31    0.47
  -2  11  18    2.68    0.79
  -2 -11  18    1.70    0.49
   2 -11 -18    2.48    0.60
  -1  11  18    1.95    0.75
  -1 -11  18    1.42    0.50
   1 -11 -18    3.83    0.70
   1  11 -18    0.68    0.56
   1  11 -18    2.23    0.55
   0 -11 -18    1.33    0.56
   0  11  18    0.69    0.66
   0  11 -18    1.36    0.57
   0  11 -18    1.80    0.51
   0 -11  18    0.57    0.44
  -1  11 -18    0.14    0.42
   1 -11  18    1.12    0.45
   1  11  18    0.76    0.64
  -1  11 -18    0.52    0.51
  -1 -11 -18    0.89    0.50
   2 -11  18    1.18    0.55
  -2  11 -18    1.50    0.48
  -2 -11 -18    1.99    0.67
  -3  11 -18    2.13    0.59
   2  12 -18    2.36    0.55
   2 -12 -18    1.82    0.57
  -2 -12  18    1.52    0.47
  -1 -12  18    1.11    0.51
   1  12 -18    1.60    0.52
   1 -12 -18    1.67    0.59
   0  12 -18    0.45    0.40
   0 -12 -18   -0.04    0.39
   0 -12  18   -0.34    0.38
   0  12 -18   -0.26    0.50
  -1  12 -18   -0.05    0.52
   1 -12  18    0.35    0.44
  -1  12 -18    0.59    0.43
  -1 -13  18    0.73    0.48
   1  13 -18    1.07    0.50
   5   0 -19    1.26    0.35
  -5   0  19    1.03    0.39
   4   0 -19   -0.10    0.26
  -4   0  19    0.22    0.29
  -3   0  19   -0.20    0.24
   3   0 -19    0.08    0.26
  -2   0  19    0.88    0.35
   2   0 -19    1.36    0.40
   1   0 -19    0.56    0.35
  -1   0  19    0.85    0.32
   0   0  19    0.36    0.29
   0   0 -19    0.33    0.33
  -1   0 -19   -0.08    0.28
   1   0  19    0.60    0.28
  -2   0 -19   -0.01    0.29
   2   0  19    0.38    0.26
  -3   0 -19   -0.06    0.32
   3   0  19    0.58    0.29
  -4   0 -19    0.30    0.32
  -6  -1  19   -0.23    0.29
   6  -1 -19    0.56    0.42
  -5   1  19    1.21    0.45
  -5  -1  19    0.72    0.41
   5   1 -19    1.78    0.44
   5  -1 -19    1.39    0.41
   4  -1 -19    0.43    0.31
  -4   1  19    0.13    0.27
   4   1 -19    0.07    0.30
  -4  -1  19    0.14    0.27
   3  -1 -19    0.51    0.27
  -3  -1  19   -0.41    0.19
   3   1 -19   -0.06    0.26
  -3   1  19    0.39    0.27
   2   1 -19    3.54    0.58
  -2  -1  19    3.83    0.55
   2  -1 -19    3.37    0.56
  -2   1  19    3.41    0.54
  -1  -1  19    4.08    0.54
  -1   1  19    2.93    0.49
   1   1 -19    3.35    0.56
   1  -1 -19    2.16    0.50
   0  -1 -19    0.20    0.33
   0   1  19    0.52    0.29
   0   1 -19    0.88    0.38
   0  -1  19    1.33    0.35
   1   1  19    2.24    0.41
   1  -1  19    2.48    0.42
  -1  -1 -19    1.93    0.48
  -1   1 -19    1.87    0.47
   2   1  19    1.08    0.32
  -2  -1 -19    0.37    0.35
  -2   1 -19    1.14    0.38
   2  -1  19    1.27    0.33
  -3   1 -19    1.13    0.41
  -3  -1 -19    1.32    0.43
   3   1  19    1.00    0.34
   3  -1  19    1.81    0.40
   4  -1  19    2.11    0.44
  -4  -1 -19    2.37    0.53
  -6   2  19    0.26    0.55
   6  -2 -19    0.15    0.39
  -6  -2  19    0.61    0.37
  -5   2  19    0.27    0.38
  -5   2  19    1.08    0.43
   5   2 -19    1.70    0.50
  -5  -2  19    0.88    0.38
  -4  -2  19    1.03    0.36
   4  -2 -19    1.70    0.42
  -4   2  19    0.47    0.37
  -4   2  19    1.11    0.38
   4   2 -19    0.72    0.36
   3  -2 -19    0.44    0.27
   3   2 -19    0.53    0.32
  -3   2  19    0.00    0.35
  -3   2  19    0.08    0.25
  -3  -2  19   -0.24    0.20
  -2   2  19    2.29    0.46
  -2   2  19    1.47    0.46
   2  -2 -19    2.09    0.46
   2   2 -19    1.54    0.44
  -2  -2  19    1.14    0.35
   1   2 -19    9.49    0.91
  -1  -2  19    8.00    0.81
   1  -2 -19    9.02    0.88
  -1   2  19    8.54    0.85
  -1   2  19   10.00    0.85
   0   2  19    1.78    0.46
   0  -2  19    2.20    0.41
   0   2  19    2.39    0.43
   0  -2 -19    2.77    0.55
   0   2 -19    2.56    0.53
  -1  -2 -19    2.80    0.55
   1   2  19    3.40    0.47
   1  -2  19    3.17    0.49
  -1   2 -19    1.99    0.54
   2  -2  19    4.28    0.58
  -2   2 -19    5.05    0.70
   2   2  19    5.66    0.61
  -2  -2 -19    5.03    0.70
  -3   2 -19    3.70    0.61
   3  -2  19    2.32    0.47
  -3  -2 -19    2.48    0.55
   4  -2  19    1.08    0.36
  -4  -2 -19    0.60    0.40
  -6   3  19    0.40    0.52
   6  -3 -19    0.12    0.36
  -6  -3  19   -0.03    0.33
  -5  -3  19    0.54    0.34
  -5   3  19    0.45    0.40
   5   3 -19    0.63    0.39
  -4   3  19   -0.23    0.35
   4   3 -19    0.56    0.34
  -4  -3  19    0.11    0.27
   4  -3 -19    0.73    0.35
  -4   3  19    0.02    0.26
  -3   3  19    0.30    0.28
  -3   3  19   -0.38    0.30
   3   3 -19    0.23    0.30
   3  -3 -19    0.42    0.29
  -3  -3  19    0.07    0.26
   2   3 -19    2.41    0.50
  -2   3  19    2.50    0.47
  -2  -3  19    2.40    0.46
  -2   3  19    1.63    0.47
   2  -3 -19    2.39    0.49
  -1  -3  19   -0.15    0.24
   1  -3 -19    0.06    0.30
  -1   3  19    0.15    0.29
   1   3 -19    0.04    0.31
  -1   3  19    0.92    0.33
   0  -3 -19    5.42    0.75
   0   3  19    7.96    0.74
   0   3  19    6.38    0.77
   0  -3  19    4.79    0.65
   0   3 -19    7.14    0.80
  -1  -3 -19    0.39    0.33
   1   3  19    0.08    0.34
   1   3  19   -0.04    0.20
   1  -3  19   -0.24    0.22
  -1   3 -19   -0.06    0.30
  -2   3 -19    0.09    0.30
   2   3  19    0.12    0.25
   2  -3  19   -0.14    0.24
  -2  -3 -19    0.55    0.32
   2   3  19   -0.04    0.36
   3  -3  19    7.14    0.77
   3   3  19    6.17    0.80
  -3  -3 -19    7.32    0.86
  -3   3 -19    9.08    0.91
   4  -3  19    2.30    0.50
   4   3  19    3.12    0.62
  -4  -3 -19    3.70    0.64
   5  -3  19    3.66    0.60
  -6   4  19    0.05    0.53
  -6  -4  19    0.54    0.39
   6   4 -19    1.34    0.46
   6  -4 -19   -0.33    0.36
  -5   4  19    0.18    0.44
   5  -4 -19    0.70    0.49
   5   4 -19    1.20    0.40
  -5  -4  19    0.58    0.36
   4  -4 -19    2.46    0.50
  -4   4  19    1.33    0.41
   4   4 -19    2.57    0.52
  -4  -4  19    0.83    0.35
  -4   4  19    0.83    0.43
  -3  -4  19    0.26    0.26
   3  -4 -19    0.68    0.33
  -3   4  19    0.37    0.35
  -3   4  19   -0.49    0.21
   3   4 -19    0.14    0.34
  -2  -4  19    0.75    0.31
  -2   4  19    0.45    0.37
   2   4 -19    0.91    0.35
   2  -4 -19    0.37    0.30
  -2   4  19    0.36    0.32
   1   4 -19    0.49    0.38
   1  -4 -19    0.19    0.31
  -1   4  19    0.84    0.36
  -1   4  19    0.32    0.29
  -1  -4  19    0.46    0.27
   0   4  19    0.11    0.24
   0  -4 -19   -0.22    0.31
   0   4 -19   -0.08    0.31
   0  -4  19    0.44    0.30
   0   4  19    0.23    0.36
  -1  -4 -19    0.05    0.29
   1   4  19    0.61    0.39
   1   4  19    0.03    0.20
   1  -4  19   -0.28    0.22
  -1   4 -19    0.56    0.36
  -2   4 -19    0.37    0.35
   2   4  19    0.22    0.36
  -2  -4 -19   -0.25    0.30
   2  -4  19   -0.13    0.24
  -3  -4 -19    0.35    0.35
  -3   4 -19   -0.08    0.34
   3  -4  19    0.51    0.32
   3   4  19    0.31    0.31
   4   4  19    0.53    0.48
   4  -4  19    0.38    0.32
  -4  -4 -19   -0.04    0.38
   5  -4  19    0.43    0.31
   5   4  19    0.63    0.60
  -6  -5  19   -0.23    0.35
   6   5 -19    0.87    0.39
  -6   5  19   -0.07    0.54
  -5   5  19    0.42    0.49
   5   5 -19    1.49    0.46
   5  -5 -19    1.27    0.60
  -5  -5  19    1.62    0.46
   4  -5 -19    0.27    0.31
  -4  -5  19    0.35    0.28
   4  -5 -19    0.89    0.45
  -4   5  19   -0.21    0.38
   4   5 -19    0.26    0.37
   3  -5 -19    0.57    0.33
  -3   5  19    0.47    0.40
  -3  -5  19    0.49    0.30
   3   5 -19    0.43    0.34
  -3   5  19    0.37    0.29
   2   5 -19    0.65    0.31
  -2   5  19    1.15    0.35
  -2   5  19    0.32    0.35
   2  -5 -19    0.16    0.29
  -2  -5  19    0.10    0.25
  -1  -5  19    0.56    0.30
   1   5 -19    0.43    0.35
  -1   5  19    0.94    0.38
  -1   5  19    0.75    0.33
   1  -5 -19    0.88    0.36
   0  -5 -19    3.19    0.58
   0  -5  19    3.61    0.55
   0   5  19    3.22    0.61
   0   5  19    3.99    0.54
   0   5 -19    3.30    0.61
   1   5  19    9.67    0.92
   1  -5  19    8.71    0.83
  -1   5 -19    7.70    0.90
  -1  -5 -19    7.24    0.90
   2  -5  19   -0.03    0.27
   2   5  19    0.69    0.44
  -2  -5 -19    0.78    0.40
  -2   5 -19    0.26    0.36
  -3  -5 -19    4.84    0.74
   3  -5  19    3.55    0.57
   3   5  19    3.07    0.63
  -3   5 -19    4.99    0.71
   4  -5  19    3.09    0.58
   4   5  19    3.18    0.68
  -4  -5 -19    3.19    0.66
   5  -5  19    0.23    0.30
   5   5  19   -0.05    0.62
   6   6 -19    1.78    0.51
   5  -6 -19    0.59    0.52
   5   6 -19    0.60    0.35
  -5  -6  19    0.44    0.36
  -5   6  19   -0.52    0.45
  -4  -6  19   -0.01    0.28
   4   6 -19    0.35    0.32
   4  -6 -19    0.13    0.29
   4  -6 -19    0.04    0.43
  -4   6  19   -0.14    0.40
  -3  -6  19    0.77    0.34
   3  -6 -19    0.74    0.37
   3   6 -19    1.31    0.42
  -3   6  19    0.69    0.45
   2   6 -19    0.86    0.34
  -2   6  19   -0.11    0.39
   2  -6 -19    0.28    0.28
  -2   6  19   -0.09    0.28
  -2  -6  19    0.14    0.26
   1  -6 -19    6.64    0.84
  -1   6  19    8.01    0.91
  -1   6  19    7.69    0.81
   1   6 -19    7.52    0.90
  -1  -6  19    7.45    0.79
   0   6  19    0.29    0.27
   0   6  19    0.21    0.43
   0   6 -19    0.12    0.32
   0  -6  19   -0.24    0.25
   0  -6 -19   -0.36    0.29
  -1  -6 -19    0.15    0.38
  -1   6 -19    0.67    0.37
   1  -6  19    0.40    0.31
   1   6  19    0.59    0.39
  -2  -6 -19    9.03    0.98
   2   6  19    8.03    0.99
  -2   6 -19    8.53    0.93
   2  -6  19    5.67    0.76
  -3  -6 -19    2.24    0.61
   3  -6  19    2.31    0.50
   3   6  19    1.25    0.47
  -4  -6 -19   -0.25    0.43
   4   6  19    0.62    0.52
   4  -6  19    0.72    0.38
  -5  -6 -19    0.42    0.53
  -5   6 -19    0.28    0.46
  -5  -7  19    0.18    0.35
   5   7 -19    0.38    0.38
  -5   7  19    0.69    0.55
   5  -7 -19    0.02    0.51
  -4  -7  19    0.10    0.28
   4   7 -19    0.74    0.38
   4  -7 -19   -0.18    0.42
  -4   7  19   -0.06    0.47
   3   7 -19    0.41    0.36
  -3  -7  19   -0.04    0.26
   3  -7 -19    0.06    0.37
   3  -7 -19    0.43    0.38
  -3   7  19   -0.07    0.40
  -2   7  19    0.41    0.41
   2  -7 -19    0.73    0.38
   2   7 -19    1.78    0.49
  -2  -7  19    0.66    0.31
  -1  -7  19    1.15    0.40
   1  -7 -19    2.22    0.52
   1   7 -19    1.11    0.43
  -1   7  19    1.29    0.43
  -1   7  19    0.84    0.45
   0  -7 -19    0.74    0.34
   0   7  19    1.14    0.50
   0  -7  19    0.47    0.34
   0   7 -19    0.35    0.37
   1   7  19    1.42    0.57
  -1  -7 -19    2.23    0.58
  -1   7 -19    1.94    0.54
   1  -7  19    2.87    0.53
   2  -7  19    0.92    0.33
  -2   7 -19    0.83    0.43
   2   7  19    1.03    0.50
  -2  -7 -19    0.11    0.43
  -3  -7 -19    0.51    0.49
   3   7  19    0.93    0.51
   3  -7  19    0.80    0.37
   4  -7  19    2.73    0.57
  -4   7 -19    3.75    0.68
   4   7  19    1.15    0.60
  -4  -7 -19    2.25    0.67
  -5   7 -19    1.60    0.57
   5   8 -19    2.09    0.53
  -4  -8  19    0.62    0.38
  -4   8  19    0.61    0.60
   4   8 -19    0.22    0.39
   4  -8 -19    0.72    0.53
   3  -8 -19   -0.33    0.37
  -3   8  19    0.17    0.48
   3  -8 -19    0.52    0.38
   3   8 -19    1.12    0.43
  -3  -8  19    0.58    0.32
  -2  -8  19    0.49    0.32
   2   8 -19   -0.36    0.39
   2  -8 -19    0.10    0.34
   2  -8 -19    0.33    0.36
  -2   8  19    0.29    0.44
  -1   8  19   -0.04    0.43
  -1  -8  19    0.30    0.29
   1   8 -19    0.44    0.40
   1  -8 -19    0.76    0.39
   0   8 -19    0.32    0.39
   0  -8  19    0.10    0.31
   0  -8 -19    1.12    0.42
   0   8  19    0.30    0.50
  -1  -8 -19    1.14    0.44
  -1   8 -19    0.03    0.38
   1  -8  19   -0.19    0.31
   1   8  19    0.24    0.48
   2   8  19    1.22    0.61
  -2   8 -19    1.93    0.55
   2  -8  19    1.59    0.41
  -2  -8 -19    1.20    0.56
  -3   8 -19    0.70    0.43
   3   8  19    0.44    0.56
   3  -8  19    0.35    0.35
  -3  -8 -19    0.72    0.51
  -4  -8 -19    0.95    0.58
  -4   8 -19    1.85    0.54
  -4  -9  19    1.15    0.40
   4  -9 -19    0.33    0.50
   4   9 -19    1.50    0.47
   3  -9 -19    0.10    0.45
  -3   9  19    0.84    0.58
  -3  -9  19    0.24    0.34
   3   9 -19    0.72    0.37
   3  -9 -19    0.26    0.42
  -2  -9  19    2.37    0.50
  -2   9  19    2.76    0.70
   2   9 -19    1.37    0.60
   2  -9 -19    1.72    0.50
   2  -9 -19    2.92    0.61
   1  -9 -19    0.53    0.39
  -1  -9  19    0.33    0.33
  -1   9  19    0.31    0.53
   1   9 -19    0.33    0.44
   0  -9 -19    1.26    0.47
   0  -9  19    1.00    0.43
   0   9 -19    0.78    0.47
   0   9  19    0.98    0.61
  -1   9 -19    3.75    0.70
   1   9  19    2.79    0.72
   1  -9  19    3.01    0.60
  -1  -9 -19    3.68    0.70
   2  -9  19    1.24    0.49
  -2  -9 -19    0.80    0.58
  -2   9 -19    1.98    0.53
  -2   9 -19    1.32    0.53
   2   9  19    1.35    0.63
  -3   9 -19    0.66    0.48
   3  -9  19    0.18    0.36
   3   9  19    0.28    0.64
  -3  -9 -19    0.14    0.56
  -4   9 -19    1.91    0.58
   4 -10 -19    2.04    0.66
   3 -10 -19    1.87    0.50
   3 -10 -19    1.08    0.58
   3  10 -19    1.14    0.49
  -3 -10  19    1.42    0.45
   2  10 -19    0.03    0.49
   2 -10 -19    0.82    0.44
  -2  10  19    0.42    0.58
  -2 -10  19    0.33    0.35
  -1 -10  19    2.10    0.52
   1 -10 -19    1.69    0.54
   1  10 -19    1.09    0.55
  -1  10  19    2.69    0.77
   0  10 -19   -0.35    0.42
   0 -10  19    0.48    0.41
   0  10  19   -0.13    0.65
   0 -10 -19    0.22    0.38
   1  10  19    0.74    0.65
  -1  10 -19    1.06    0.45
  -1  10 -19    0.56    0.50
   1 -10  19    0.41    0.42
  -1 -10 -19    0.52    0.45
  -2 -10 -19    2.61    0.77
  -2  10 -19    2.70    0.60
   2 -10  19    2.39    0.61
  -3  10 -19    0.80    0.49
   2 -11 -19    0.08    0.42
  -2 -11  19    0.41    0.35
   1 -11 -19    0.51    0.45
   1  11 -19   -0.28    0.46
  -1 -11  19    0.21    0.36
   0 -11  19    1.57    0.52
   0  11 -19    0.66    0.51
   0 -11 -19    1.23    0.54
  -1  11 -19   -0.05    0.48
  -1  11 -19    0.67    0.41
  -2  11 -19    2.43    0.61
   2 -12 -19    0.76    0.51
  -2 -12  19    0.46    0.42
  -1 -12  19    0.20    0.40
   0  12 -19    0.75    0.45
  -1  12 -19   -0.46    0.51
  -1  12 -19    0.71    0.45
  -5   0  20    3.90    0.70
   5   0 -20    5.09    0.74
  -4   0  20    0.51    0.36
   4   0 -20    1.93    0.44
  -3   0  20    2.31    0.50
   3   0 -20    2.85    0.54
  -2   0  20    5.49    0.69
   2   0 -20    6.07    0.76
   1   0 -20    0.50    0.31
  -1   0  20    1.18    0.33
   0   0 -20    4.40    0.67
   0   0  20    4.28    0.58
   1   0  20    0.61    0.26
  -1   0 -20    0.21    0.29
   2   0  20    2.08    0.42
  -2   0 -20    1.92    0.49
  -3   0 -20    3.44    0.63
   3   0  20    2.72    0.49
  -4   0 -20    0.47    0.41
   6  -1 -20    0.02    0.44
  -6  -1  20    0.01    0.38
  -5  -1  20    0.40    0.40
   5   1 -20    1.34    0.43
  -5   1  20    1.83    0.51
   5  -1 -20    1.86    0.49
  -4  -1  20    0.62    0.34
   4  -1 -20    0.73    0.34
  -4   1  20    1.07    0.39
   4   1 -20    1.44    0.41
  -3   1  20    0.92    0.39
   3  -1 -20    1.44    0.40
   3   1 -20    1.07    0.37
  -3  -1  20    1.09    0.37
  -2  -1  20    1.18    0.37
   2  -1 -20    1.99    0.44
   2   1 -20    1.15    0.36
  -2   1  20    2.18    0.46
  -1  -1  20    5.01    0.62
  -1   1  20    4.81    0.63
   1   1 -20    5.12    0.70
   1  -1 -20    4.15    0.66
   0  -1 -20    0.81    0.39
   0  -1  20    0.58    0.30
   0   1  20    1.07    0.31
   0   1 -20    0.62    0.37
  -1  -1 -20    2.70    0.55
   1  -1  20    1.90    0.40
  -1   1 -20    2.83    0.56
   1   1  20    2.67    0.46
  -2  -1 -20    0.71    0.38
   2   1  20    0.94    0.33
   2  -1  20    0.27    0.27
  -2   1 -20    0.24    0.34
  -3   1 -20    0.25    0.39
   3   1  20    0.40    0.26
  -3  -1 -20    0.86    0.42
   3  -1  20    0.10    0.26
  -4  -1 -20    1.28    0.50
   4  -1  20    2.06    0.46
  -6  -2  20    0.20    0.37
  -5  -2  20   -0.14    0.32
  -5   2  20   -0.01    0.37
   5   2 -20    0.62    0.39
  -4   2  20    0.47    0.30
  -4  -2  20    0.48    0.35
   4  -2 -20    1.40    0.39
   4   2 -20    1.27    0.42
  -3  -2  20    2.41    0.49
   3  -2 -20    2.38    0.49
  -3   2  20    1.93    0.49
   3   2 -20    2.73    0.55
  -2   2  20    0.87    0.34
  -2  -2  20    0.63    0.33
   2  -2 -20    1.36    0.38
   2   2 -20    0.83    0.38
   1  -2 -20    1.70    0.43
   1   2 -20    1.02    0.40
  -1   2  20    1.33    0.38
  -1  -2  20    0.99    0.35
   0   2 -20    3.10    0.58
   0   2  20    3.25    0.49
   0  -2 -20    2.94    0.57
   0  -2  20    2.14    0.45
   1  -2  20    0.41    0.27
   1   2  20    0.99    0.31
  -1   2 -20    0.34    0.37
  -1  -2 -20    0.53    0.37
   2  -2  20    0.42    0.30
  -2   2 -20    0.63    0.41
  -2  -2 -20    0.90    0.43
   2   2  20    0.85    0.33
   3  -2  20    0.34    0.29
  -3  -2 -20    0.21    0.36
  -3   2 -20    0.02    0.36
   4  -2  20    0.46    0.30
  -4  -2 -20    0.34    0.41
  -6   3  20    0.24    0.53
  -6  -3  20    0.29    0.41
  -5   3  20    0.00    0.40
   5   3 -20    0.65    0.42
  -5  -3  20    0.27    0.34
   4   3 -20    3.30    0.61
  -4   3  20    2.97    0.57
  -4   3  20    2.32    0.56
   4  -3 -20    2.63    0.55
  -4  -3  20    3.43    0.57
  -3   3  20    0.39    0.40
   3   3 -20    0.37    0.33
  -3   3  20    0.00    0.28
   3  -3 -20    0.65    0.31
  -3  -3  20    0.30    0.27
  -2   3  20    2.07    0.47
  -2  -3  20    1.25    0.40
  -2   3  20    1.51    0.46
   2  -3 -20    1.66    0.45
   2   3 -20    2.27    0.49
  -1  -3  20   -0.09    0.24
  -1   3  20    0.22    0.27
   1   3 -20    0.36    0.36
   1  -3 -20    0.35    0.32
  -1   3  20   -0.42    0.32
   0  -3 -20    0.88    0.38
   0   3  20    0.18    0.39
   0  -3  20    0.75    0.30
   0   3 -20    0.80    0.41
   0   3  20    1.19    0.35
   1   3  20    2.17    0.53
   1  -3  20    2.93    0.49
  -1   3 -20    2.52    0.56
  -1  -3 -20    3.06    0.57
   1   3  20    3.00    0.48
  -2  -3 -20    0.41    0.36
   2  -3  20    0.31    0.28
  -2   3 -20    0.34    0.38
   3  -3  20    0.47    0.32
  -3  -3 -20    0.12    0.38
  -3   3 -20    0.28    0.39
   4  -3  20    7.72    0.85
  -4  -3 -20    7.80    0.95
   5  -3  20    0.47    0.35
  -6   4  20   -0.34    0.53
  -6  -4  20   -0.19    0.37
  -5   4  20   -0.08    0.47
   5  -4 -20    0.11    0.47
   5   4 -20    1.26    0.44
  -5  -4  20    0.56    0.40
  -4   4  20    0.17    0.42
   4   4 -20    1.20    0.48
  -4  -4  20    0.39    0.34
  -4   4  20    0.84    0.37
   4  -4 -20    0.92    0.37
  -3  -4  20    0.65    0.33
   3  -4 -20    1.36    0.40
  -3   4  20    1.44    0.44
  -3   4  20    0.91    0.44
   3   4 -20    1.35    0.43
  -2   4  20    1.39    0.42
  -2  -4  20    0.77    0.33
   2   4 -20    0.78    0.36
   2  -4 -20    1.29    0.39
  -2   4  20    0.28    0.39
  -1   4  20    1.65    0.46
  -1   4  20    2.75    0.48
   1  -4 -20    1.80    0.49
   1   4 -20    1.80    0.52
  -1  -4  20    2.00    0.46
   0  -4  20    0.48    0.31
   0   4  20    0.99    0.47
   0   4  20    1.08    0.38
   0   4 -20    1.32    0.46
   0  -4 -20    1.49    0.41
  -1   4 -20    0.16    0.33
   1  -4  20    0.13    0.28
  -1  -4 -20    0.47    0.37
   1   4  20    0.57    0.29
   1   4  20   -0.21    0.35
  -2   4 -20    2.63    0.58
   2  -4  20    3.34    0.54
  -2  -4 -20    2.95    0.61
   2   4  20    1.57    0.52
  -3   4 -20    6.42    0.82
  -3  -4 -20    5.65    0.79
   3  -4  20    4.97    0.68
   3   4  20    4.69    0.74
   4  -4  20    3.23    0.57
  -4  -4 -20    3.77    0.73
   4   4  20    3.30    0.70
   5  -4  20    2.69    0.56
  -6  -5  20    0.16    0.40
   6   5 -20    0.68    0.44
   5   5 -20    0.26    0.33
   5  -5 -20   -0.24    0.46
  -5  -5  20    0.04    0.35
  -5   5  20   -0.31    0.46
  -4  -5  20    0.16    0.31
   4   5 -20    0.21    0.31
   4  -5 -20    0.63    0.37
  -4   5  20   -0.13    0.43
   4  -5 -20    0.49    0.51
  -3   5  20    0.69    0.33
   3  -5 -20    0.51    0.33
  -3   5  20    0.53    0.42
   3   5 -20    0.64    0.36
  -3  -5  20    0.03    0.27
  -2  -5  20   -0.02    0.27
  -2   5  20   -0.23    0.33
  -2   5  20    0.07    0.28
   2   5 -20    0.31    0.31
   2  -5 -20    0.18    0.31
   1  -5 -20    1.63    0.43
  -1   5  20    1.34    0.46
  -1   5  20    2.21    0.47
   1   5 -20    2.24    0.56
  -1  -5  20    1.65    0.42
   0   5  20    0.07    0.44
   0  -5 -20    0.18    0.32
   0  -5  20    0.63    0.31
   0   5 -20    0.31    0.36
   0   5  20    0.28    0.29
   1  -5  20    0.67    0.34
   1   5  20    0.40    0.40
  -1   5 -20    0.87    0.42
  -1  -5 -20    0.54    0.38
  -2  -5 -20    0.18    0.41
  -2   5 -20    0.72    0.44
   2  -5  20    0.88    0.36
   2   5  20    1.00    0.49
   3  -5  20    0.46    0.29
   3   5  20   -0.12    0.43
  -3  -5 -20    0.76    0.48
   4   5  20    5.75    0.94
  -4  -5 -20    7.53    0.95
   4  -5  20    7.02    0.83
   5   6 -20    1.05    0.41
  -5  -6  20    0.69    0.40
  -5   6  20    0.21    0.54
   4   6 -20    0.08    0.34
   4  -6 -20    0.00    0.48
   4  -6 -20    0.29    0.34
  -4  -6  20   -0.26    0.27
  -4   6  20   -0.11    0.50
   3   6 -20    0.70    0.38
  -3   6  20    0.36    0.45
  -3  -6  20    0.48    0.31
   3  -6 -20    0.31    0.33
   2   6 -20    1.02    0.36
  -2  -6  20    0.76    0.36
   2  -6 -20    2.01    0.45
  -2   6  20    1.02    0.38
  -2   6  20    0.94    0.49
  -1   6  20    0.69    0.35
   1  -6 -20    1.03    0.37
   1   6 -20    0.78    0.45
  -1   6  20    0.47    0.42
  -1  -6  20    0.19    0.27
   0   6  20    1.41    0.42
   0  -6 -20    2.70    0.55
   0   6  20    0.99    0.54
   0  -6  20    2.36    0.49
   0   6 -20    1.91    0.55
   1   6  20    0.38    0.45
   1  -6  20    0.64    0.35
  -1   6 -20    1.13    0.45
  -1  -6 -20    0.17    0.38
  -2  -6 -20    0.34    0.41
  -2   6 -20   -0.43    0.38
   2  -6  20    0.08    0.27
   2   6  20   -0.01    0.46
  -3  -6 -20   -0.67    0.43
   3  -6  20    0.18    0.29
   3   6  20   -0.36    0.41
   4   6  20   -0.31    0.47
  -4  -6 -20    0.82    0.54
   4  -6  20    0.56    0.38
   5   7 -20    0.86    0.44
  -5  -7  20    0.08    0.35
  -4  -7  20    0.72    0.39
   4   7 -20    1.42    0.47
   4  -7 -20    1.23    0.60
  -4   7  20    0.53    0.54
   3  -7 -20    0.60    0.40
  -3   7  20   -0.67    0.45
   3   7 -20   -0.17    0.30
   3  -7 -20   -0.09    0.43
  -3  -7  20   -0.10    0.28
  -2   7  20    0.85    0.37
   2  -7 -20    1.16    0.42
  -2  -7  20    0.88    0.41
  -2   7  20    0.55    0.47
   2   7 -20    0.86    0.47
  -1  -7  20   -0.03    0.31
  -1   7  20    1.43    0.40
  -1   7  20    0.33    0.46
   1  -7 -20    0.83    0.39
   1   7 -20   -0.02    0.39
   0  -7 -20    1.86    0.51
   0  -7  20    1.06    0.43
   0   7 -20    1.93    0.53
   0   7  20    0.50    0.51
  -1   7 -20    3.43    0.67
  -1  -7 -20    3.10    0.64
   1  -7  20    2.97    0.60
   1   7  20    2.57    0.68
  -2   7 -20    1.72    0.53
  -2  -7 -20    1.58    0.59
   2  -7  20    1.34    0.41
   2   7  20    1.95    0.65
   3  -7  20   -0.23    0.26
  -3  -7 -20   -0.54    0.43
   3   7  20    0.14    0.54
  -4  -7 -20    5.28    0.88
   4   8 -20    2.31    0.59
   4  -8 -20    1.47    0.60
  -4  -8  20    1.33    0.47
   3  -8 -20    0.43    0.35
  -3  -8  20    0.39    0.35
   3   8 -20    0.45    0.38
   3  -8 -20   -0.26    0.42
  -3   8  20    0.88    0.61
  -2   8  20   -0.21    0.46
   2  -8 -20    0.29    0.38
  -2  -8  20    0.86    0.38
   2  -8 -20   -0.02    0.37
   2   8 -20    0.74    0.51
  -1  -8  20    1.95    0.50
  -1   8  20    2.07    0.63
   1   8 -20    1.04    0.50
   1  -8 -20    2.96    0.60
   0  -8  20    3.69    0.65
   0   8 -20    3.60    0.70
   0   8  20    3.61    0.83
   0  -8 -20    3.96    0.70
  -1   8 -20    1.72    0.57
   1  -8  20    1.18    0.46
  -1  -8 -20    1.01    0.43
   1   8  20    0.58    0.58
  -2   8 -20    2.84    0.64
   2  -8  20    3.16    0.58
   2   8  20    2.01    0.72
  -2  -8 -20    1.71    0.65
   3   8  20    1.82    0.73
  -3  -8 -20    2.57    0.74
  -4  -9  20    1.25    0.47
   3  -9 -20    0.02    0.36
   3  -9 -20   -0.40    0.42
  -3   9  20    0.13    0.60
  -3  -9  20    0.39    0.37
   3   9 -20    0.35    0.38
  -2  -9  20    0.39    0.36
   2  -9 -20    0.13    0.44
  -2   9  20   -0.43    0.54
   2  -9 -20    1.10    0.43
   2   9 -20   -0.47    0.44
   1   9 -20    1.36    0.55
  -1  -9  20    1.54    0.49
  -1   9  20    0.67    0.60
   1  -9 -20    2.26    0.53
   0   9  20    0.27    0.59
   0  -9  20    0.29    0.37
   0   9 -20   -0.31    0.43
   0  -9 -20    1.43    0.47
   1   9  20    2.08    0.76
   1  -9  20    2.09    0.57
  -1   9 -20    2.03    0.62
  -1  -9 -20    2.32    0.62
   2   9  20    0.10    0.61
  -2   9 -20    0.63    0.51
  -2  -9 -20    0.51    0.56
   3 -10 -20    0.57    0.50
   3 -10 -20    1.10    0.51
  -3 -10  20    0.25    0.41
  -2 -10  20    1.11    0.43
   2 -10 -20    1.14    0.47
   1 -10 -20   -0.05    0.42
   1  10 -20    0.60    0.56
  -1 -10  20    0.23    0.40
  -1  10  20   -0.02    0.58
   0  10 -20   -0.05    0.48
   0 -10  20    0.63    0.42
   0 -10 -20    0.65    0.48
   0  10  20   -0.18    0.70
  -1  10 -20    0.28    0.48
  -2 -11  20    1.26    0.48
   2 -11 -20    0.18    0.46
  -1  11 -20    1.68    0.67
  -5   0  21    0.22    0.40
   5   0 -21    1.05    0.41
   4   0 -21    0.72    0.36
  -4   0  21    0.46    0.39
   3   0 -21    0.50    0.33
  -3   0  21   -0.15    0.27
  -2   0  21    0.01    0.26
   2   0 -21    0.08    0.31
  -1   0  21   -0.10    0.25
   1   0 -21    0.28    0.35
   0   0  21    0.01    0.24
   0   0 -21    0.85    0.39
  -1   0 -21   -0.19    0.30
   1   0  21    0.18    0.24
  -2   0 -21   -0.27    0.32
   2   0  21    0.55    0.28
  -3   0 -21   -0.25    0.40
   3   0  21    0.05    0.25
  -5  -1  21    1.03    0.46
   5   1 -21    1.94    0.46
   5  -1 -21    1.66    0.45
  -5   1  21    1.02    0.45
  -4   1  21    1.12    0.42
   4   1 -21    1.86    0.45
  -4  -1  21    0.84    0.40
   4  -1 -21    1.90    0.43
   3  -1 -21    1.45    0.39
  -3  -1  21   -0.27    0.25
   3   1 -21    0.61    0.36
  -3   1  21    0.98    0.36
  -2   1  21    0.22    0.31
   2  -1 -21    0.68    0.33
   2   1 -21    1.00    0.38
  -2  -1  21    0.35    0.28
  -1   1  21    0.57    0.30
   1  -1 -21    0.36    0.32
   1   1 -21    0.41    0.32
  -1  -1  21    0.08    0.24
   0   1 -21    0.10    0.37
   0  -1  21    0.06    0.26
   0  -1 -21    0.09    0.33
   0   1  21    0.14    0.24
   1  -1  21    0.84    0.31
  -1   1 -21    0.94    0.42
  -1  -1 -21    1.32    0.45
   1   1  21    1.40    0.38
  -2   1 -21    0.77    0.45
  -2  -1 -21    0.66    0.43
   2   1  21    1.55    0.37
   2  -1  21    1.95    0.43
  -3  -1 -21    3.07    0.63
  -3   1 -21    2.56    0.62
   3  -1  21    3.87    0.57
  -4  -1 -21    2.30    0.62
   5   2 -21    0.91    0.42
  -5   2  21    1.12    0.46
  -5  -2  21    0.68    0.45
   4  -2 -21    1.46    0.44
  -4   2  21    1.59    0.46
  -4  -2  21    0.54    0.39
   4   2 -21    0.75    0.38
  -3  -2  21    0.04    0.29
   3   2 -21    1.20    0.40
  -3   2  21    0.37    0.32
   3  -2 -21    0.46    0.32
  -2  -2  21    5.16    0.67
  -2   2  21    5.55    0.71
   2  -2 -21    5.51    0.73
   2   2 -21    5.78    0.75
  -1  -2  21    1.38    0.39
   1   2 -21    0.93    0.42
  -1   2  21    1.74    0.42
   1  -2 -21    1.35    0.41
   0  -2 -21    0.16    0.33
   0  -2  21    0.11    0.25
   0   2  21    0.67    0.30
   0   2 -21    1.02    0.44
   1  -2  21    1.67    0.42
  -1  -2 -21    1.48    0.50
   1   2  21    2.02    0.41
  -1   2 -21    0.83    0.43
  -2  -2 -21    0.17    0.36
   2  -2  21   -0.05    0.26
   2   2  21    0.72    0.28
  -2   2 -21   -0.04    0.37
  -3   2 -21    2.15    0.59
   3  -2  21    2.27    0.49
  -3  -2 -21    1.85    0.56
  -4  -2 -21    2.28    0.63
   4  -2  21    2.08    0.50
  -5   3  21   -0.22    0.45
  -5  -3  21    0.59    0.40
   5   3 -21    0.86    0.39
  -4   3  21    0.15    0.41
  -4  -3  21    0.64    0.39
   4  -3 -21    0.85    0.37
   4   3 -21    0.32    0.35
  -4   3  21    0.72    0.34
  -3  -3  21    0.42    0.33
   3  -3 -21    0.84    0.37
  -3   3  21    0.23    0.30
   3   3 -21    0.35    0.32
  -2  -3  21    0.39    0.34
  -2   3  21    0.70    0.34
   2  -3 -21    1.43    0.40
   2   3 -21    0.68    0.35
  -1   3  21    1.45    0.39
   1   3 -21    1.41    0.50
  -1  -3  21    1.86    0.46
   1  -3 -21    1.90    0.49
   0   3 -21    0.17    0.37
   0   3  21   -0.06    0.22
   0  -3 -21    1.07    0.40
   0  -3  21    0.34    0.27
   1   3  21    3.06    0.49
   1  -3  21    2.20    0.47
  -1   3 -21    2.47    0.59
  -1  -3 -21    2.11    0.55
  -2   3 -21    1.53    0.49
  -2  -3 -21    2.28    0.55
   2  -3  21    2.13    0.47
   3  -3  21    0.50    0.34
  -3  -3 -21    0.43    0.45
  -3   3 -21   -0.11    0.39
  -4  -3 -21    0.21    0.51
   4  -3  21    0.53    0.31
  -5  -4  21    0.18    0.38
  -5   4  21   -0.51    0.48
   5   4 -21    1.17    0.41
  -4   4  21   -0.10    0.27
   4   4 -21    0.82    0.43
  -4   4  21   -0.40    0.37
   4  -4 -21    0.80    0.38
  -4  -4  21    0.05    0.32
   3   4 -21    0.04    0.29
   3  -4 -21    1.13    0.38
  -3   4  21   -0.26    0.39
  -3   4  21    0.45    0.31
  -3  -4  21   -0.20    0.29
   2  -4 -21    0.29    0.32
  -2   4  21    0.60    0.31
   2   4 -21   -0.15    0.29
  -2   4  21   -0.34    0.34
  -2  -4  21    0.28    0.30
  -1  -4  21    0.25    0.29
  -1   4  21    0.17    0.30
   1  -4 -21    0.51    0.34
  -1   4  21    0.08    0.38
   1   4 -21   -0.05    0.36
   0   4 -21   -0.03    0.37
   0   4  21    0.00    0.27
   0  -4 -21    0.38    0.30
   0  -4  21   -0.22    0.23
   0   4  21    0.05    0.40
  -1   4 -21    0.97    0.46
   1   4  21    0.74    0.46
   1   4  21    0.90    0.36
   1  -4  21    0.90    0.34
  -1  -4 -21    0.70    0.41
   2  -4  21    0.68    0.33
  -2   4 -21    0.13    0.38
   2   4  21    0.80    0.51
  -2  -4 -21    0.62    0.48
   3  -4  21    0.53    0.32
  -3  -4 -21   -0.16    0.44
  -3   4 -21    0.36    0.43
  -4  -4 -21    0.50    0.53
   4  -4  21    0.41    0.31
  -5  -5  21    0.53    0.41
   5   5 -21    0.25    0.37
  -5   5  21   -0.23    0.53
  -4   5  21    0.01    0.49
   4   5 -21    1.27    0.43
   4  -5 -21    0.70    0.40
  -4  -5  21    0.14    0.35
  -3  -5  21    0.64    0.38
  -3   5  21    0.51    0.47
  -3   5  21    0.95    0.35
   3  -5 -21    2.18    0.55
   3   5 -21    0.56    0.37
  -2   5  21    0.08    0.41
  -2   5  21    0.13    0.28
   2   5 -21    0.07    0.32
  -2  -5  21    0.11    0.29
   2  -5 -21   -0.01    0.30
  -1  -5  21    4.13    0.62
  -1   5  21    5.01    0.65
   1   5 -21    3.67    0.69
  -1   5  21    3.00    0.62
   1  -5 -21    3.52    0.64
   0  -5 -21    1.33    0.44
   0   5 -21    0.75    0.42
   0   5  21    0.61    0.50
   0  -5  21    1.51    0.42
   0   5  21    1.52    0.42
   1   5  21    2.83    0.65
   1  -5  21    1.60    0.45
  -1   5 -21    2.11    0.57
  -1  -5 -21    1.81    0.54
  -2  -5 -21    2.12    0.63
  -2   5 -21    2.18    0.60
   2  -5  21    1.98    0.48
   2   5  21    1.51    0.61
  -3  -5 -21    0.61    0.49
   3  -5  21    0.40    0.31
   3   5  21   -0.40    0.50
  -4  -5 -21    0.00    0.50
   4  -5  21    0.69    0.37
   4   5  21    0.01    0.44
  -5  -6  21    0.53    0.40
  -4   6  21    0.59    0.56
  -4  -6  21    0.24    0.35
   4  -6 -21    0.16    0.33
   4  -6 -21    0.08    0.54
   4   6 -21    0.04    0.36
  -3   6  21    0.26    0.50
   3   6 -21    0.59    0.38
   3  -6 -21    0.76    0.34
  -3  -6  21    0.62    0.36
   2   6 -21    1.20    0.38
  -2   6  21    0.18    0.31
   2  -6 -21    0.41    0.34
  -2  -6  21   -0.31    0.30
  -2   6  21   -0.06    0.43
  -1   6  21    0.47    0.42
   1   6 -21    0.26    0.43
  -1  -6  21    0.47    0.35
  -1   6  21    0.89    0.34
   1  -6 -21    1.03    0.39
   0   6 -21    2.61    0.62
   0   6  21    0.34    0.57
   0  -6 -21    1.99    0.51
   0  -6  21    2.16    0.52
   1   6  21    3.11    0.74
  -1  -6 -21    4.16    0.73
   1  -6  21    4.01    0.62
  -1   6 -21    3.82    0.72
   2   6  21    0.89    0.61
   2  -6  21    1.64    0.45
  -2   6 -21    1.79    0.59
  -2  -6 -21    0.85    0.53
  -3  -6 -21   -0.35    0.48
   3   6  21   -0.31    0.54
   3  -6  21    0.02    0.28
  -4  -7  21    0.24    0.35
   4  -7 -21    0.21    0.55
   3  -7 -21    0.02    0.46
  -3   7  21    0.38    0.55
  -3  -7  21    0.56    0.37
   3   7 -21    0.92    0.40
   3  -7 -21    0.69    0.41
  -2   7  21    0.08    0.30
   2   7 -21   -0.14    0.44
  -2   7  21    0.25    0.53
  -2  -7  21    0.05    0.35
   2  -7 -21    0.20    0.39
   1  -7 -21    0.51    0.37
  -1   7  21   -0.28    0.47
  -1  -7  21    0.34    0.34
  -1   7  21   -0.54    0.28
   1   7 -21    0.00    0.44
   0  -7  21    0.25    0.36
   0  -7 -21    0.34    0.36
   0   7  21   -0.16    0.54
   0   7 -21    0.08    0.45
  -1  -7 -21    1.15    0.52
  -1   7 -21    0.86    0.49
   1   7  21   -0.14    0.56
   1  -7  21    1.01    0.41
   2  -7  21    0.90    0.36
  -2   7 -21    0.22    0.45
  -2  -7 -21   -0.20    0.47
   2   7  21    0.35    0.61
   3   7  21    1.96    0.71
  -4  -8  21   -0.08    0.37
  -3   8  21   -0.36    0.55
   3  -8 -21   -0.14    0.36
  -3  -8  21    0.44    0.39
   3  -8 -21   -0.15    0.49
   2  -8 -21    0.82    0.38
   2  -8 -21   -0.13    0.41
  -2   8  21    0.29    0.57
   2   8 -21   -0.23    0.45
  -2  -8  21   -0.42    0.31
  -1   8  21    0.60    0.57
   1  -8 -21    1.65    0.44
  -1  -8  21    1.33    0.47
   1   8 -21    1.95    0.65
   0   8  21    0.71    0.62
   0  -8 -21    1.12    0.46
   0   8 -21    1.32    0.57
   0  -8  21    1.63    0.53
   1   8  21    0.34    0.57
   1  -8  21    0.59    0.42
  -1   8 -21    0.37    0.48
  -1  -8 -21    1.02    0.47
   2   8  21    0.60    0.66
  -2   8 -21    1.27    0.58
  -3  -9  21    0.45    0.41
   3  -9 -21    0.47    0.41
   3  -9 -21    0.05    0.49
  -2  -9  21    0.45    0.43
   2  -9 -21    0.37    0.41
  -1  -9  21    0.27    0.40
  -1   9  21   -0.33    0.53
   1  -9 -21    1.11    0.47
   1   9 -21    0.03    0.51
   0  -9  21    0.09    0.40
   0   9  21   -1.39    0.54
   0  -9 -21    0.34    0.40
   0   9 -21    0.51    0.49
  -1   9 -21    1.12    0.56
   5   0 -22    2.11    0.51
   4   0 -22    1.43    0.43
  -4   0  22    0.52    0.42
  -3   0  22    7.88    0.85
   3   0 -22    7.66    0.91
  -2   0  22    0.76    0.34
   2   0 -22    0.50    0.34
  -1   0  22    1.09    0.36
   1   0 -22    0.88    0.35
   0   0  22    0.47    0.28
   0   0 -22    0.50    0.42
  -1   0 -22    3.20    0.66
   1   0  22    3.69    0.56
  -2   0 -22    0.11    0.42
   2   0  22    0.27    0.31
  -3   0 -22    0.10    0.45
   3   0  22    0.41    0.31
   5  -1 -22    1.17    0.40
   5   1 -22    0.93    0.43
   4   1 -22    0.10    0.30
  -4  -1  22    0.17    0.40
   4  -1 -22    0.17    0.31
  -4   1  22    0.09    0.27
  -3  -1  22    1.55    0.48
   3  -1 -22    2.10    0.53
  -3   1  22    2.41    0.50
   3   1 -22    2.28    0.52
   2  -1 -22    2.02    0.49
  -2  -1  22    1.69    0.44
  -2   1  22    2.48    0.48
   2   1 -22    1.89    0.49
  -1  -1  22    0.54    0.29
  -1   1  22    1.15    0.38
   1   1 -22    0.84    0.32
   1  -1 -22    0.80    0.37
   0  -1 -22    0.39    0.39
   0  -1  22    0.38    0.28
   0   1  22    0.67    0.32
   0   1 -22    0.41    0.40
  -1   1 -22    0.16    0.39
  -1  -1 -22    0.03    0.39
   1  -1  22   -0.23    0.23
   1   1  22    0.16    0.25
  -2   1 -22    0.02    0.41
   2   1  22    0.34    0.30
  -2  -1 -22    0.11    0.44
   2  -1  22    1.03    0.37
   3  -1  22    0.39    0.30
  -3  -1 -22   -0.10    0.41
  -3   1 -22    0.60    0.49
  -4  -1 -22    0.48    0.52
   5   2 -22    1.02    0.41
  -4  -2  22    0.61    0.41
   4  -2 -22    0.90    0.39
   4   2 -22    0.45    0.32
  -4   2  22    0.62    0.37
  -3  -2  22    0.08    0.33
  -3   2  22   -0.32    0.29
   3   2 -22    0.70    0.35
   3  -2 -22    0.56    0.35
  -2  -2  22    4.49    0.64
  -2   2  22    5.73    0.69
   2  -2 -22    3.83    0.66
   2   2 -22    3.76    0.65
  -1   2  22    0.19    0.28
   1  -2 -22    0.40    0.32
   1   2 -22   -0.38    0.34
  -1  -2  22    0.34    0.29
   0   2 -22    0.25    0.41
   0   2  22    0.34    0.29
   0  -2  22    0.12    0.28
   0  -2 -22    0.37    0.41
  -1  -2 -22    0.16    0.39
   1   2  22    0.19    0.25
  -1   2 -22    0.37    0.42
   1  -2  22    0.51    0.27
   2  -2  22    0.11    0.28
   2   2  22    0.63    0.32
  -2  -2 -22   -0.28    0.38
  -2   2 -22   -0.06    0.41
   3  -2  22    2.09    0.49
  -3   2 -22    2.00    0.60
  -3  -2 -22    2.74    0.67
  -4  -2 -22   -0.32    0.45
   4  -2  22   -0.06    0.32
   5   3 -22    1.06    0.46
   4  -3 -22    0.09    0.35
  -4   3  22    0.37    0.34
  -4  -3  22    0.75    0.43
   4   3 -22    0.56    0.38
   3  -3 -22    0.18    0.34
  -3  -3  22   -0.28    0.30
  -3   3  22    0.18    0.31
   3   3 -22    0.78    0.37
   2  -3 -22    0.32    0.32
   2   3 -22    0.98    0.37
  -2  -3  22    0.55    0.37
  -2   3  22   -0.03    0.30
   1   3 -22    1.12    0.49
   1  -3 -22    1.09    0.39
  -1  -3  22    1.72    0.42
  -1   3  22    0.60    0.37
   0   3  22    0.50    0.30
   0  -3  22    0.48    0.29
   0   3 -22    0.01    0.39
   0  -3 -22    0.85    0.47
   1   3  22    0.29    0.28
  -1   3 -22   -0.15    0.39
   1  -3  22    0.24    0.30
  -1  -3 -22   -0.23    0.37
  -2   3 -22    3.11    0.68
   2  -3  22    3.36    0.58
  -2  -3 -22    2.43    0.63
  -3  -3 -22    3.12    0.72
   3  -3  22    2.26    0.51
  -3   3 -22    2.77    0.68
   4  -3  22   -0.05    0.30
  -4  -3 -22    0.29    0.51
  -5   4  22    0.36    0.53
   4  -4 -22    2.05    0.50
  -4  -4  22    1.33    0.48
  -4   4  22    1.75    0.49
  -4   4  22    1.17    0.56
   4   4 -22    0.75    0.44
   3  -4 -22    0.46    0.33
   3   4 -22    0.55    0.34
  -3   4  22    0.65    0.34
  -3  -4  22   -0.10    0.30
  -3   4  22   -0.20    0.45
  -2   4  22    0.56    0.34
   2   4 -22    0.29    0.34
  -2  -4  22   -0.20    0.31
  -2   4  22    0.26    0.45
   2  -4 -22    0.39    0.36
  -1  -4  22    0.03    0.28
   1  -4 -22    0.23    0.33
  -1   4  22    0.47    0.31
   1   4 -22    0.02    0.39
   0  -4 -22    0.90    0.33
   0   4  22    0.33    0.29
   0   4 -22    0.11    0.40
   0  -4  22    0.72    0.31
  -1  -4 -22    4.11    0.74
   1  -4  22    5.05    0.66
  -1   4 -22    3.99    0.77
  -2  -4 -22    3.85    0.77
   2  -4  22    4.05    0.63
  -2   4 -22    3.85    0.75
   3  -4  22    0.67    0.32
  -3   4 -22   -0.39    0.45
  -3  -4 -22    0.04    0.51
   4  -5 -22    0.75    0.41
   4   5 -22    1.08    0.45
  -4   5  22   -0.22    0.51
  -4  -5  22   -0.20    0.34
   3  -5 -22    0.81    0.37
  -3  -5  22    0.25    0.38
  -3   5  22    0.15    0.48
   3   5 -22    1.07    0.41
  -3   5  22    0.75    0.36
  -2  -5  22    0.39    0.37
   2   5 -22    1.17    0.36
   2  -5 -22    0.65    0.34
  -2   5  22    1.06    0.40
  -2   5  22    0.06    0.45
  -1   5  22    0.75    0.36
   1  -5 -22    0.57    0.33
   1   5 -22   -0.02    0.42
  -1  -5  22    0.33    0.38
  -1   5  22   -0.33    0.41
   0  -5  22    0.27    0.28
   0  -5 -22    0.26    0.32
   0   5  22   -0.06    0.47
   0   5 -22    0.42    0.43
   0   5  22    0.26    0.31
  -1   5 -22   -0.05    0.45
   1   5  22   -0.70    0.46
  -1  -5 -22   -0.17    0.40
   1  -5  22    0.46    0.29
  -2  -5 -22    4.08    0.79
  -2   5 -22    5.09    0.84
   2   5  22    4.40    0.85
   2  -5  22    4.77    0.69
   3  -5  22    0.60    0.37
  -3  -5 -22    0.08    0.50
   3   6 -22    1.78    0.50
   3  -6 -22    1.47    0.47
  -3  -6  22    1.68    0.49
  -3   6  22    0.82    0.58
   2  -6 -22    0.45    0.35
  -2   6  22    0.29    0.34
  -2  -6  22    0.15    0.35
  -2   6  22    0.28    0.50
   2   6 -22    1.05    0.41
  -1   6  22   -0.32    0.46
  -1   6  22    0.73    0.38
   1   6 -22    0.33    0.46
  -1  -6  22    0.78    0.40
   1  -6 -22    1.47    0.41
   0   6 -22    1.03    0.53
   0  -6 -22    1.06    0.43
   0   6  22    0.63    0.60
   0  -6  22    0.46    0.38
   1   6  22   -0.77    0.51
  -1   6 -22    0.71    0.50
   1  -6  22    0.72    0.35
  -1  -6 -22   -0.14    0.45
   2   6  22    0.14    0.60
   2  -6  22    0.08    0.33
  -2   6 -22    0.50    0.49
  -2  -6 -22   -0.06    0.49
   3   6  22    0.89    0.69
  -3  -7  22    0.28    0.38
  -3   7  22    0.14    0.50
   3  -7 -22    0.67    0.53
   3  -7 -22    0.44    0.42
  -2   7  22    0.98    0.37
   2   7 -22    0.11    0.47
  -2   7  22    0.39    0.57
  -2  -7  22    0.07    0.38
   2  -7 -22    0.45    0.38
  -1  -7  22   -0.20    0.33
  -1   7  22   -0.29    0.52
   1   7 -22    0.17    0.50
   1  -7 -22    1.18    0.42
   0  -7 -22    0.62    0.41
   0   7  22    1.13    0.64
   0   7 -22    1.37    0.56
   0  -7  22    1.07    0.46
   1  -7  22    2.73    0.56
  -1  -7 -22    3.06    0.72
   1   7  22    2.00    0.75
  -1   7 -22    2.55    0.69
  -2   7 -22    5.00    0.83
   2   7  22    2.99    0.83
   3  -8 -22   -0.52    0.36
   2  -8 -22    3.41    0.67
   2  -8 -22    2.86    0.68
   1  -8 -22    0.40    0.40
  -1   8  22   -0.32    0.55
   0   8  22   -1.07    0.62
   0   8 -22    0.65    0.52
  -1   8 -22    3.17    0.74
  -2   8 -22    0.22    0.53
   5   0 -23    0.56    0.43
   4   0 -23   -0.33    0.30
   3   0 -23    0.41    0.35
  -3   0  23    0.06    0.32
   2   0 -23    1.31    0.40
  -2   0  23    0.60    0.34
   1   0 -23    0.28    0.28
  -1   0  23   -0.07    0.24
   0   0 -23   -0.80    0.33
   0   0  23   -0.28    0.23
   1   0  23    0.37    0.29
  -1   0 -23   -0.22    0.40
   2   0  23    0.63    0.30
  -2   0 -23   -0.04    0.44
  -3   0 -23   -0.49    0.46
   4   1 -23    1.11    0.43
   4  -1 -23    1.11    0.41
  -3   1  23    0.85    0.35
  -3  -1  23    0.07    0.32
   3   1 -23    1.44    0.43
   3  -1 -23    0.63    0.37
  -2  -1  23    1.40    0.41
   2  -1 -23    1.81    0.47
  -2   1  23    1.68    0.47
   2   1 -23    2.26    0.54
   1  -1 -23    0.20    0.32
  -1  -1  23    0.12    0.25
  -1   1  23    0.11    0.26
   1   1 -23    0.57    0.37
   0   1  23    0.45    0.30
   0   1 -23    0.64    0.45
   0  -1  23    0.23    0.29
   0  -1 -23    0.34    0.44
  -1   1 -23    0.26    0.45
   1   1  23    1.32    0.34
   1  -1  23    1.01    0.36
  -1  -1 -23    1.31    0.57
  -2   1 -23    0.37    0.48
   2  -1  23    0.73    0.32
   2   1  23    0.51    0.32
  -2  -1 -23   -0.48    0.42
   3  -1  23    1.32    0.41
  -3  -1 -23    0.72    0.54
  -3   1 -23    2.04    0.65
   4   2 -23    1.53    0.47
   4  -2 -23    2.12    0.50
  -3  -2  23    1.01    0.46
   3   2 -23    0.59    0.36
   3  -2 -23    1.42    0.46
  -3   2  23    1.21    0.44
   2  -2 -23    0.97    0.39
  -2  -2  23    0.58    0.33
  -2   2  23    0.87    0.33
   2   2 -23    0.97    0.38
  -1   2  23    0.58    0.31
   1   2 -23   -0.53    0.40
  -1  -2  23    0.40    0.25
   1  -2 -23    0.31    0.33
   0   2 -23    0.13    0.44
   0   2  23    0.09    0.26
   0  -2 -23   -0.53    0.37
   0  -2  23   -0.05    0.26
   1   2  23    0.98    0.33
   1  -2  23    1.14    0.37
  -1   2 -23    0.64    0.46
  -1  -2 -23    1.00    0.53
   2  -2  23    0.49    0.30
  -2  -2 -23    0.52    0.45
  -2   2 -23   -0.10    0.44
   3  -2  23    0.98    0.36
  -3  -2 -23    0.24    0.53
  -3   2 -23    0.37    0.55
   4   3 -23    2.59    0.57
   4  -3 -23    1.90    0.49
  -3   3  23    0.08    0.26
  -3  -3  23   -0.06    0.37
   3   3 -23    0.70    0.38
   3  -3 -23    0.32    0.32
  -2   3  23    2.27    0.50
   2   3 -23    2.65    0.56
   2  -3 -23    1.65    0.47
  -2  -3  23    1.81    0.52
  -1   3  23    1.33    0.41
   1  -3 -23    1.56    0.43
   1   3 -23    1.05    0.54
  -1  -3  23    1.67    0.40
   0  -3  23    0.06    0.26
   0   3  23   -0.26    0.27
   0   3 -23    0.18    0.45
   0  -3 -23   -0.04    0.41
  -1  -3 -23    0.28    0.46
   1  -3  23   -0.05    0.24
   1   3  23    0.04    0.26
  -1   3 -23   -0.19    0.44
   2  -3  23    0.25    0.34
  -2  -3 -23   -0.19    0.43
  -2   3 -23    0.18    0.50
  -3   3 -23    1.54    0.65
   3  -3  23    1.09    0.41
   4  -4 -23    0.48    0.37
  -3  -4  23    0.41    0.41
   3   4 -23    0.23    0.34
  -3   4  23    0.74    0.39
   3  -4 -23   -0.19    0.31
  -2   4  23    0.27    0.32
  -2  -4  23   -0.22    0.32
   2   4 -23    0.42    0.35
   2  -4 -23    0.31    0.35
   1   4 -23    0.38    0.46
  -1  -4  23    0.33    0.32
   1  -4 -23   -0.11    0.32
  -1   4  23    0.38    0.34
   0  -4 -23    0.60    0.35
   0  -4  23    0.16    0.27
   0   4 -23    0.55    0.49
   0   4  23    0.05    0.31
  -1   4 -23    0.39    0.50
  -1  -4 -23   -0.29    0.40
   1  -4  23    0.49    0.33
  -2  -4 -23    0.09    0.45
  -2   4 -23   -0.42    0.44
   2  -4  23    0.48    0.36
   4  -5 -23    0.84    0.44
  -3   5  23    0.22    0.56
  -3   5  23    0.93    0.39
   3  -5 -23    1.20    0.41
  -2   5  23    1.95    0.50
  -2  -5  23    1.08    0.45
   2  -5 -23    0.66    0.39
  -2   5  23    0.93    0.57
   2   5 -23    1.66    0.45
  -1  -5  23    0.05    0.37
  -1   5  23    0.72    0.37
   1   5 -23    0.37    0.50
   1  -5 -23    0.41    0.38
   0  -5 -23    0.56    0.33
   0   5 -23    0.73    0.49
   0  -5  23   -0.14    0.26
  -1  -5 -23    1.55    0.58
  -1   5 -23    0.80    0.55
   1  -5  23    1.01    0.41
  -2   5 -23    0.46    0.55
  -3   6  23    0.63    0.62
   3  -6 -23    1.27    0.46
   2  -6 -23    0.37    0.37
  -2   6  23    0.83    0.38
  -2   6  23    0.03    0.56
   1  -6 -23    1.72    0.49
  -1  -6  23    1.21    0.50
   1   6 -23    1.31    0.61
  -1   6  23    0.27    0.59
  -1   6  23    1.73    0.46
   0   6  23   -0.31    0.59
   0   6 -23    0.63    0.56
   1   6  23    0.75    0.71
  -1   6 -23    0.22    0.50
  -2   6 -23    0.45    0.60
   2   6  23    0.17    0.63
  -2   7  23    0.64    0.36
  -1   7  23   -0.38    0.59
   0   7  23    0.01    0.67
   2  -8 -23    0.59    0.55
   3   0 -24    0.39    0.33
  -2   0  24    0.21    0.32
   2   0 -24   -0.61    0.26
   1   0 -24    1.60    0.42
  -1   0  24    1.56    0.44
   0   0  24    0.25    0.28
   0   0 -24   -0.31    0.42
  -1   0 -24    0.43    0.48
   1   0  24    0.84    0.32
   2   0  24   -0.03    0.30
  -2   0 -24    0.78    0.54
   3  -1 -24    1.48    0.46
   2  -1 -24   -0.38    0.28
  -2   1  24    0.76    0.38
   2   1 -24    0.70    0.40
  -2  -1  24    0.46    0.33
  -1   1  24    0.05    0.26
  -1  -1  24    0.27    0.27
   1  -1 -24    1.34    0.43
   1   1 -24    0.65    0.35
   0  -1  24    0.16    0.28
   0   1  24    0.39    0.27
   0   1 -24   -0.43    0.41
   0  -1 -24    0.37    0.46
   1   1  24    0.20    0.27
  -1   1 -24    0.22    0.49
  -1  -1 -24   -0.07    0.46
   1  -1  24    0.19    0.28
  -2   1 -24   -0.14    0.46
   2  -1  24    0.26    0.32
   2   1  24   -0.02    0.29
   3  -2 -24    0.39    0.36
  -2  -2  24    0.17    0.28
  -2   2  24    1.07    0.37
   2   2 -24    0.45    0.37
   2  -2 -24    0.96    0.44
   1  -2 -24    1.37    0.44
  -1  -2  24    0.52    0.31
  -1   2  24    0.93    0.37
   1   2 -24    1.02    0.55
   0  -2 -24   -0.48    0.43
   0   2 -24    0.01    0.43
   0  -2  24    0.55    0.33
   0   2  24    0.58    0.35
  -1   2 -24   -0.34    0.44
   1  -2  24    0.66    0.34
  -1  -2 -24   -0.62    0.42
   1   2  24    0.91    0.39
   2  -2  24    0.20    0.30
  -2   2 -24   -0.05    0.52
   2  -3 -24    0.91    0.41
  -2   3  24    1.00    0.41
   1  -3 -24   -0.17    0.30
  -1   3  24    0.57    0.33
   1   3 -24    0.12    0.53
  -1  -3  24    0.13    0.30
   0   3 -24    0.11    0.47
   0  -3 -24    0.19    0.46
   0   3  24    0.32    0.30
   0  -3  24    0.17    0.29
   1  -3  24    1.86    0.51
  -1   3 -24    3.01    0.72
  -2   4  24    3.41    0.63
  -1   4  24    1.61    0.43
   0   4  24    1.43    0.42
  -2   5  24    0.59    0.38
  -1   5  24    0.63    0.37
  -1   6  24    0.67    0.35
   0   1  25    0.50    0.33
   1   1  25    0.56    0.33
   0   2  25    1.21    0.38
   1   2  25    1.05    0.41
   0   3  25    0.38    0.36
   0   4  25    0.38    0.35
   0   0   0    0.00    0.00
;
_shelx_hkl_checksum              29010
loop_
_space_group_symop_operation_xyz
'x, y, z'
'-x, y+1/2, -z+1/2'
'-x, -y, -z'
'x, -y-1/2, z-1/2'
loop_
_atom_site_label
_atom_site_type_symbol
_atom_site_fract_x
_atom_site_fract_y
_atom_site_fract_z
_atom_site_U_iso_or_equiv
_atom_site_adp_type
_atom_site_occupancy
_atom_site_site_symmetry_order
_atom_site_calc_flag
_atom_site_refinement_flags_posn
_atom_site_refinement_flags_adp
_atom_site_refinement_flags_occupancy
_atom_site_disorder_assembly
_atom_site_disorder_group
C1 C 0.0878(3) 0.1960(2) 0.05862(15) 0.0393(6) Uani 1 1 d . . . . .
C2 C -0.0184(4) 0.1544(2) 0.00368(16) 0.0465(7) Uani 1 1 d . . . . .
H2 H -0.0401 0.0879 0.0028 0.056 Uiso 1 1 calc R U . . .
C3 C -0.0913(4) 0.2135(2) -0.04962(17) 0.0525(8) Uani 1 1 d . . . . .
H3 H -0.1614 0.1857 -0.0865 0.063 Uiso 1 1 calc R U . . .
C4 C -0.0629(4) 0.3125(3) -0.04943(18) 0.0575(9) Uani 1 1 d . . . . .
C5 C 0.0433(5) 0.3518(2) 0.00619(19) 0.0606(9) Uani 1 1 d . . . . .
H5 H 0.0647 0.4184 0.0071 0.073 Uiso 1 1 calc R U . . .
C6 C 0.1179(4) 0.2949(2) 0.06005(17) 0.0515(8) Uani 1 1 d . . . . .
H6 H 0.1878 0.3229 0.0970 0.062 Uiso 1 1 calc R U . . .
C7 C -0.1421(7) 0.3757(3) -0.1086(3) 0.0888(15) Uani 1 1 d . . . . .
H7A H -0.1263 0.4428 -0.0961 0.133 Uiso 1 1 calc R U . . .
H7B H -0.2691 0.3619 -0.1168 0.133 Uiso 1 1 calc R U . . .
H7C H -0.0812 0.3625 -0.1503 0.133 Uiso 1 1 calc R U . . .
C8 C 0.5316(3) 0.1226(2) 0.15335(14) 0.0364(6) Uani 1 1 d . . . . .
C9 C 0.6876(4) 0.2811(2) 0.15125(17) 0.0459(7) Uani 1 1 d . . . . .
C10 C 0.6019(5) 0.3275(3) 0.0944(2) 0.0636(9) Uani 1 1 d . . . . .
H10 H 0.5386 0.2919 0.0594 0.076 Uiso 1 1 calc R U . . .
C11 C 0.6110(6) 0.4276(3) 0.0898(3) 0.0925(15) Uani 1 1 d . . . . .
H11 H 0.5512 0.4593 0.0521 0.111 Uiso 1 1 calc R U . . .
C12 C 0.7072(6) 0.4805(3) 0.1404(4) 0.0970(17) Uani 1 1 d . . . . .
H12 H 0.7117 0.5478 0.1370 0.116 Uiso 1 1 calc R U . . .
C13 C 0.7956(5) 0.4349(3) 0.1954(3) 0.0832(14) Uani 1 1 d . . . . .
H13 H 0.8623 0.4708 0.2293 0.100 Uiso 1 1 calc R U . . .
C14 C 0.7868(4) 0.3349(3) 0.2012(2) 0.0605(9) Uani 1 1 d . . . . .
H14 H 0.8479 0.3039 0.2389 0.073 Uiso 1 1 calc R U . . .
C15 C 0.5632(3) 0.0147(2) 0.16086(14) 0.0377(6) Uani 1 1 d . . . . .
H15 H 0.4459 -0.0165 0.1665 0.045 Uiso 1 1 calc R U . . .
C16 C 0.6895(5) -0.0094(3) 0.22589(17) 0.0586(9) Uani 1 1 d D . . . .
H16A H 0.8108 0.0121 0.2170 0.070 Uiso 1 1 calc R U . A 1
H16B H 0.6505 0.0285 0.2648 0.070 Uiso 1 1 calc R U . A 1
C17 C 0.7008(16) -0.1157(5) 0.2487(5) 0.061(3) Uani 0.729(11) 1 d D U P B 1
H17A H 0.5852 -0.1347 0.2657 0.073 Uiso 0.729(11) 1 calc R U P B 1
H17B H 0.7920 -0.1217 0.2873 0.073 Uiso 0.729(11) 1 calc R U P B 1
C18 C 0.7480(8) -0.1862(4) 0.1898(3) 0.078(2) Uani 0.729(11) 1 d D U P B 1
H18A H 0.8526 -0.1614 0.1676 0.094 Uiso 0.729(11) 1 calc R U P B 1
H18B H 0.7808 -0.2486 0.2104 0.094 Uiso 0.729(11) 1 calc R U P B 1
C19 C 0.5908(12) -0.2006(5) 0.1337(4) 0.078(3) Uani 0.729(11) 1 d D U P B 1
H19A H 0.6015 -0.2650 0.1138 0.094 Uiso 0.729(11) 1 calc R U P B 1
H19B H 0.4777 -0.1986 0.1565 0.094 Uiso 0.729(11) 1 calc R U P B 1
C171 C 0.714(4) -0.1204(7) 0.2275(16) 0.075(10) Uani 0.271(11) 1 d D U P B 2
H17C H 0.7287 -0.1374 0.2767 0.091 Uiso 0.271(11) 1 calc R U P B 2
H17D H 0.8310 -0.1320 0.2088 0.091 Uiso 0.271(11) 1 calc R U P B 2
C181 C 0.587(2) -0.1988(9) 0.1936(8) 0.068(5) Uani 0.271(11) 1 d D U P B 2
H18C H 0.5975 -0.2589 0.2200 0.081 Uiso 0.271(11) 1 calc R U P B 2
H18D H 0.4615 -0.1773 0.1923 0.081 Uiso 0.271(11) 1 calc R U P B 2
C191 C 0.647(3) -0.2138(14) 0.1186(9) 0.078(7) Uani 0.271(11) 1 d D U P B 2
H19C H 0.7777 -0.2182 0.1194 0.093 Uiso 0.271(11) 1 calc R U P B 2
H19D H 0.5956 -0.2736 0.0991 0.093 Uiso 0.271(11) 1 calc R U P B 2
C20 C 0.5792(5) -0.1270(3) 0.0736(2) 0.0607(9) Uani 1 1 d D U . . .
H20A H 0.644(5) -0.154(3) 0.034(2) 0.073 Uiso 1 1 d . U . . .
H20B H 0.450(6) -0.125(3) 0.058(2) 0.073 Uiso 1 1 d . U . . .
C21 C 0.6383(4) -0.0247(2) 0.09310(16) 0.0465(7) Uani 1 1 d . . . . .
H21A H 0.6003 0.0183 0.0548 0.056 Uiso 1 1 calc R U . . .
H21B H 0.7697 -0.0230 0.0984 0.056 Uiso 1 1 calc R U . . .
N1 N 0.3759(3) 0.16751(17) 0.14110(13) 0.0427(6) Uani 1 1 d . . . . .
N2 N 0.6810(3) 0.17891(19) 0.15891(14) 0.0459(6) Uani 1 1 d . . . . .
O1 O 0.0768(3) 0.13470(17) 0.18722(12) 0.0545(6) Uani 1 1 d . . . . .
O2 O 0.1774(3) 0.02183(15) 0.09967(14) 0.0624(7) Uani 1 1 d . . . . .
S1 S 0.17979(8) 0.11918(5) 0.12638(4) 0.0406(3) Uani 1 1 d . . . . .
H1N H 0.773(5) 0.150(3) 0.1691(18) 0.056(10) Uiso 1 1 d . . . . .
loop_
_atom_site_aniso_label
_atom_site_aniso_U_11
_atom_site_aniso_U_22
_atom_site_aniso_U_33
_atom_site_aniso_U_23
_atom_site_aniso_U_13
_atom_site_aniso_U_12
C1 0.0247(13) 0.0402(15) 0.0526(16) -0.0024(12) -0.0001(11) 0.0030(11)
C2 0.0327(15) 0.0429(17) 0.0630(18) -0.0028(14) -0.0029(13) -0.0068(12)
C3 0.0352(16) 0.063(2) 0.0578(19) 0.0001(15) -0.0078(13) -0.0079(14)
C4 0.0416(17) 0.064(2) 0.066(2) 0.0128(16) -0.0041(15) 0.0012(15)
C5 0.064(2) 0.0378(17) 0.078(2) 0.0033(15) -0.0110(18) 0.0001(15)
C6 0.0477(18) 0.0416(17) 0.0633(19) -0.0059(14) -0.0105(14) 0.0025(13)
C7 0.088(3) 0.082(3) 0.092(3) 0.031(2) -0.030(3) -0.014(2)
C8 0.0218(13) 0.0434(16) 0.0437(14) -0.0049(11) 0.0006(10) 0.0001(10)
C9 0.0214(13) 0.0450(17) 0.072(2) -0.0032(14) 0.0073(12) -0.0020(11)
C10 0.051(2) 0.062(2) 0.077(2) 0.0109(18) -0.0003(17) -0.0071(16)
C11 0.069(3) 0.073(3) 0.135(4) 0.040(3) 0.003(3) 0.000(2)
C12 0.059(3) 0.045(2) 0.189(6) 0.004(3) 0.026(3) -0.002(2)
C13 0.047(2) 0.061(3) 0.143(4) -0.035(3) 0.015(2) -0.0157(19)
C14 0.0311(16) 0.061(2) 0.089(2) -0.0146(18) 0.0013(15) -0.0076(14)
C15 0.0223(12) 0.0426(16) 0.0478(15) 0.0046(12) 0.0004(11) 0.0012(11)
C16 0.0473(19) 0.076(2) 0.0519(18) 0.0115(16) -0.0044(14) 0.0016(16)
C17 0.048(4) 0.081(5) 0.053(5) 0.035(3) -0.001(3) 0.001(3)
C18 0.069(4) 0.058(4) 0.105(5) 0.025(3) 0.001(3) 0.023(3)
C19 0.072(6) 0.034(3) 0.126(8) 0.003(4) -0.004(5) 0.005(3)
C171 0.057(15) 0.102(18) 0.063(16) 0.047(10) -0.029(13) -0.014(11)
C181 0.074(11) 0.046(8) 0.083(10) 0.023(7) 0.003(8) 0.002(6)
C191 0.068(14) 0.045(10) 0.125(14) 0.005(8) 0.038(10) 0.028(8)
C20 0.055(2) 0.054(2) 0.074(2) -0.0115(17) 0.0111(18) -0.0005(16)
C21 0.0467(17) 0.0441(17) 0.0488(16) 0.0036(13) 0.0044(13) 0.0028(13)
N1 0.0205(11) 0.0364(13) 0.0704(16) -0.0063(11) -0.0042(10) -0.0013(9)
N2 0.0186(11) 0.0448(15) 0.0738(17) -0.0008(12) -0.0019(11) 0.0008(10)
O1 0.0286(11) 0.0706(16) 0.0641(13) 0.0160(11) 0.0016(9) 0.0004(9)
O2 0.0383(12) 0.0357(12) 0.1090(19) -0.0040(11) -0.0261(12) -0.0013(9)
S1 0.0207(4) 0.0364(4) 0.0636(5) 0.0010(3) -0.0062(3) -0.0014(2)
loop_
_atom_type_symbol
_atom_type_description
_atom_type_scat_dispersion_real
_atom_type_scat_dispersion_imag
_atom_type_scat_source
C C 0.0033 0.0016 'International Tables Vol C Tables 4.2.6.8 and 6.1.1.4'
H H 0.0000 0.0000 'International Tables Vol C Tables 4.2.6.8 and 6.1.1.4'
N N 0.0061 0.0033 'International Tables Vol C Tables 4.2.6.8 and 6.1.1.4'
O O 0.0106 0.0060 'International Tables Vol C Tables 4.2.6.8 and 6.1.1.4'
S S 0.1246 0.1234 'International Tables Vol C Tables 4.2.6.8 and 6.1.1.4'
loop_
_geom_angle_atom_site_label_1
_geom_angle_atom_site_label_2
_geom_angle_atom_site_label_3
_geom_angle
C6 C1 C2 120.2(3)
C6 C1 S1 121.4(2)
C2 C1 S1 118.4(2)
C3 C2 C1 119.1(3)
C3 C2 H2 120.5
C1 C2 H2 120.5
C4 C3 C2 121.8(3)
C4 C3 H3 119.1
C2 C3 H3 119.1
C3 C4 C5 117.8(3)
C3 C4 C7 121.1(3)
C5 C4 C7 121.2(3)
C6 C5 C4 121.8(3)
C6 C5 H5 119.1
C4 C5 H5 119.1
C1 C6 C5 119.4(3)
C1 C6 H6 120.3
C5 C6 H6 120.3
C4 C7 H7A 109.5
C4 C7 H7B 109.5
H7A C7 H7B 109.5
C4 C7 H7C 109.5
H7A C7 H7C 109.5
H7B C7 H7C 109.5
N1 C8 N2 116.4(3)
N1 C8 C15 127.5(2)
N2 C8 C15 116.0(2)
C10 C9 C14 119.4(3)
C10 C9 N2 121.7(3)
C14 C9 N2 118.9(3)
C11 C10 C9 119.4(4)
C11 C10 H10 120.3
C9 C10 H10 120.3
C12 C11 C10 120.7(4)
C12 C11 H11 119.7
C10 C11 H11 119.7
C13 C12 C11 120.1(4)
C13 C12 H12 119.9
C11 C12 H12 119.9
C12 C13 C14 120.0(4)
C12 C13 H13 120.0
C14 C13 H13 120.0
C13 C14 C9 120.4(4)
C13 C14 H14 119.8
C9 C14 H14 119.8
C8 C15 C16 111.7(2)
C8 C15 C21 109.2(2)
C16 C15 C21 111.7(2)
C8 C15 H15 108.0
C16 C15 H15 108.0
C21 C15 H15 108.0
C17 C16 C15 117.1(4)
C15 C16 C171 107.1(9)
C17 C16 H16A 108.0
C15 C16 H16A 108.0
C17 C16 H16B 108.0
C15 C16 H16B 108.0
H16A C16 H16B 107.3
C16 C17 C18 113.9(6)
C16 C17 H17A 108.8
C18 C17 H17A 108.8
C16 C17 H17B 108.8
C18 C17 H17B 108.8
H17A C17 H17B 107.7
C19 C18 C17 113.1(7)
C19 C18 H18A 109.0
C17 C18 H18A 109.0
C19 C18 H18B 109.0
C17 C18 H18B 109.0
H18A C18 H18B 107.8
C20 C19 C18 116.1(6)
C20 C19 H19A 108.3
C18 C19 H19A 108.3
C20 C19 H19B 108.3
C18 C19 H19B 108.3
H19A C19 H19B 107.4
C16 C171 C181 128.1(15)
C16 C171 H17C 105.3
C181 C171 H17C 105.3
C16 C171 H17D 105.3
C181 C171 H17D 105.3
H17C C171 H17D 106.0
C191 C181 C171 106(2)
C191 C181 H18C 110.5
C171 C181 H18C 110.5
C191 C181 H18D 110.5
C171 C181 H18D 110.5
H18C C181 H18D 108.7
C20 C191 C181 108.3(10)
C20 C191 H19C 110.0
C181 C191 H19C 110.0
C20 C191 H19D 110.0
C181 C191 H19D 110.0
H19C C191 H19D 108.4
C21 C20 C19 115.5(4)
C21 C20 C191 120.6(11)
C21 C20 H20A 113(2)
C19 C20 H20A 109(2)
C191 C20 H20A 89(2)
C21 C20 H20B 108(2)
C19 C20 H20B 105(2)
C191 C20 H20B 118(2)
H20A C20 H20B 107(3)
C20 C21 C15 114.8(3)
C20 C21 H21A 108.6
C15 C21 H21A 108.6
C20 C21 H21B 108.6
C15 C21 H21B 108.6
H21A C21 H21B 107.5
C8 N1 S1 127.3(2)
C8 N2 C9 126.7(2)
C8 N2 H1N 114(3)
C9 N2 H1N 119(3)
O2 S1 O1 115.44(15)
O2 S1 N1 116.12(12)
O1 S1 N1 108.39(13)
O2 S1 C1 107.61(14)
O1 S1 C1 107.62(13)
N1 S1 C1 100.27(13)
loop_
_geom_bond_atom_site_label_1
_geom_bond_atom_site_label_2
_geom_bond_distance
C1 C6 1.380(4)
C1 C2 1.392(4)
C1 S1 1.774(3)
C2 C3 1.385(4)
C2 H2 0.9300
C3 C4 1.379(5)
C3 H3 0.9300
C4 C5 1.390(5)
C4 C7 1.514(5)
C5 C6 1.381(5)
C5 H5 0.9300
C6 H6 0.9300
C7 H7A 0.9600
C7 H7B 0.9600
C7 H7C 0.9600
C8 N1 1.313(3)
C8 N2 1.348(4)
C8 C15 1.511(4)
C9 C10 1.379(5)
C9 C14 1.381(4)
C9 N2 1.416(4)
C10 C11 1.384(6)
C10 H10 0.9300
C11 C12 1.372(8)
C11 H11 0.9300
C12 C13 1.356(7)
C12 H12 0.9300
C13 C14 1.384(6)
C13 H13 0.9300
C14 H14 0.9300
C15 C16 1.541(4)
C15 C21 1.543(4)
C15 H15 0.9800
C16 C17 1.529(7)
C16 C171 1.541(10)
C16 H16A 0.9700
C16 H16B 0.9700
C17 C18 1.545(8)
C17 H17A 0.9700
C17 H17B 0.9700
C18 C19 1.542(8)
C18 H18A 0.9700
C18 H18B 0.9700
C19 C20 1.531(7)
C19 H19A 0.9700
C19 H19B 0.9700
C171 C181 1.547(10)
C171 H17C 0.9700
C171 H17D 0.9700
C181 C191 1.544(10)
C181 H18C 0.9700
C181 H18D 0.9700
C191 C20 1.537(10)
C191 H19C 0.9700
C191 H19D 0.9700
C20 C21 1.515(5)
C20 H20A 1.00(4)
C20 H20B 0.98(4)
C21 H21A 0.9700
C21 H21B 0.9700
N1 S1 1.603(2)
N2 H1N 0.80(4)
O1 S1 1.449(2)
O2 S1 1.435(2)
loop_
_geom_torsion_atom_site_label_1
_geom_torsion_atom_site_label_2
_geom_torsion_atom_site_label_3
_geom_torsion_atom_site_label_4
_geom_torsion
C6 C1 C2 C3 0.7(4)
S1 C1 C2 C3 180.0(2)
C1 C2 C3 C4 -0.6(5)
C2 C3 C4 C5 0.4(5)
C2 C3 C4 C7 179.3(4)
C3 C4 C5 C6 -0.4(5)
C7 C4 C5 C6 -179.3(4)
C2 C1 C6 C5 -0.6(5)
S1 C1 C6 C5 -179.9(3)
C4 C5 C6 C1 0.5(5)
C14 C9 C10 C11 -2.5(5)
N2 C9 C10 C11 179.3(3)
C9 C10 C11 C12 1.4(6)
C10 C11 C12 C13 0.4(7)
C11 C12 C13 C14 -1.0(7)
C12 C13 C14 C9 -0.2(6)
C10 C9 C14 C13 2.0(5)
N2 C9 C14 C13 -179.8(3)
N1 C8 C15 C16 -132.3(3)
N2 C8 C15 C16 48.7(3)
N1 C8 C15 C21 103.6(3)
N2 C8 C15 C21 -75.4(3)
C8 C15 C16 C17 167.2(5)
C21 C15 C16 C17 -70.1(6)
C8 C15 C16 C171 -179.1(14)
C21 C15 C16 C171 -56.5(14)
C15 C16 C17 C18 53.6(9)
C16 C17 C18 C19 -72.1(10)
C17 C18 C19 C20 86.8(9)
C15 C16 C171 C181 -24(3)
C16 C171 C181 C191 89(3)
C171 C181 C191 C20 -75(2)
C18 C19 C20 C21 -33.9(8)
C181 C191 C20 C21 59(2)
C19 C20 C21 C15 -45.5(5)
C191 C20 C21 C15 -68.2(9)
C8 C15 C21 C20 -146.4(3)
C16 C15 C21 C20 89.5(3)
N2 C8 N1 S1 175.0(2)
C15 C8 N1 S1 -3.9(4)
N1 C8 N2 C9 -1.6(4)
C15 C8 N2 C9 177.5(3)
C10 C9 N2 C8 -49.9(4)
C14 C9 N2 C8 131.9(3)
C8 N1 S1 O2 -23.6(3)
C8 N1 S1 O1 108.2(3)
C8 N1 S1 C1 -139.2(3)
C6 C1 S1 O2 -161.2(2)
C2 C1 S1 O2 19.5(3)
C6 C1 S1 O1 73.8(3)
C2 C1 S1 O1 -105.5(2)
C6 C1 S1 N1 -39.4(3)
C2 C1 S1 N1 141.3(2)
