#------------------------------------------------------------------------------
#$Date: 2016-08-07 10:53:59 +0300 (Sun, 07 Aug 2016) $
#$Revision: 185108 $
#$URL: file:///home/coder/svn-repositories/cod/cif/1/54/30/1543096.cif $
#------------------------------------------------------------------------------
#
# This file is available in the Crystallography Open Database (COD),
# http://www.crystallography.net/
#
# All data on this site have been placed in the public domain by the
# contributors.
#
data_1543096
loop_
_publ_author_name
'Qin, Lei'
'Hartley, Anna'
'Turner, Peter'
'Elmes, Robert B. P.'
'Jolliffe, Katrina A.'
_publ_section_title
;
 Macrocyclic squaramides: anion receptors with high sulfate binding
 affinity and selectivity in aqueous media
;
_journal_issue                   7
_journal_name_full               'Chem. Sci.'
_journal_page_first              4563
_journal_paper_doi               10.1039/C6SC01011C
_journal_volume                  7
_journal_year                    2016
_chemical_formula_sum            'C28 H32 N4 O6 S2'
_chemical_formula_weight         584.69
_space_group_crystal_system      triclinic
_space_group_IT_number           2
_space_group_name_Hall           '-P 1'
_space_group_name_H-M_alt        'P -1'
_symmetry_cell_setting           triclinic
_symmetry_Int_Tables_number      2
_symmetry_space_group_name_Hall  '-P 1'
_symmetry_space_group_name_H-M   'P -1'
_atom_sites_solution_hydrogens   mixed
_audit_creation_method           SHELXL-2014/7
_audit_update_record
;
2016-03-03 deposited with the CCDC.
2016-04-01 downloaded from the CCDC.
;
_cell_angle_alpha                73.717(2)
_cell_angle_beta                 84.157(2)
_cell_angle_gamma                69.545(2)
_cell_formula_units_Z            1
_cell_length_a                   8.4511(2)
_cell_length_b                   8.5911(2)
_cell_length_c                   10.8922(2)
_cell_measurement_reflns_used    26314
_cell_measurement_temperature    150(1)
_cell_measurement_theta_max      76.28
_cell_measurement_theta_min      2.57
_cell_volume                     711.23(3)
_computing_cell_refinement
;
CrysAlisPro, Agilent Technologies,
Version 1.171.37.31d (release 11-02-2014 CrysAlis171 .NET)
(compiled Feb 11 2014,18:09:27)
;
_computing_data_collection
;
CrysAlisPro, Agilent Technologies,
Version 1.171.37.31d (release 11-02-2014 CrysAlis171 .NET)
(compiled Feb 11 2014,18:09:27)
;
_computing_data_reduction
;
CrysAlisPro, Agilent Technologies,
Version 1.171.37.31d (release 11-02-2014 CrysAlis171 .NET)
(compiled Feb 11 2014,18:09:27)
;
_computing_molecular_graphics
;
  ORTEP3 for Windows (Farrugia, L., 1997)
  ORTEPIII  (Burnett, N.M., Johnson,C.K., 1996). 
  WinGX (Farrugia, 1999)
  shelXle (H\"i?1/2bschle,C.B., et al., 2011) 
;
_computing_structure_refinement  'SHELXL-2014/7 (Sheldrick, 2014)'
_computing_structure_solution    'SHELXS-97 (Sheldrick, 1990)'
_diffrn_ambient_temperature      150(1)
_diffrn_crystal_treatment
;
attached with Exxon Paratone N to a nylon loop and quenched 
in a cold nitrogen gas stream from an Oxford Cryosystems Cryostream. 
;
_diffrn_detector                 'CCD plate'
_diffrn_detector_area_resol_mean 10.5861
_diffrn_detector_type            Atlas
_diffrn_measured_fraction_theta_full 1.000
_diffrn_measured_fraction_theta_max 0.992
_diffrn_measurement_device       'four-circle diffractometer'
_diffrn_measurement_device_type  'SuperNova, Dual, Cu at zero, Atlas'
_diffrn_measurement_method       \w
_diffrn_radiation_monochromator  mirror
_diffrn_radiation_type           'Cu K\a'
_diffrn_radiation_wavelength     1.5418
_diffrn_reflns_av_R_equivalents  0.0209
_diffrn_reflns_av_unetI/netI     0.0085
_diffrn_reflns_Laue_measured_fraction_full 1.000
_diffrn_reflns_Laue_measured_fraction_max 0.992
_diffrn_reflns_limit_h_max       10
_diffrn_reflns_limit_h_min       -9
_diffrn_reflns_limit_k_max       10
_diffrn_reflns_limit_k_min       -10
_diffrn_reflns_limit_l_max       13
_diffrn_reflns_limit_l_min       -13
_diffrn_reflns_number            26314
_diffrn_reflns_point_group_measured_fraction_full 1.000
_diffrn_reflns_point_group_measured_fraction_max 0.992
_diffrn_reflns_theta_full        67.679
_diffrn_reflns_theta_max         76.274
_diffrn_reflns_theta_min         4.228
_diffrn_source                   'SuperNova (Cu) X-ray Source'
_exptl_absorpt_coefficient_mu    2.108
_exptl_absorpt_correction_T_max  1.00
_exptl_absorpt_correction_T_min  0.857
_exptl_absorpt_correction_type   multi-scan
_exptl_absorpt_process_details
;
  CrysAlisPro, Agilent Technologies,
  Version 1.171.37.35
  Empirical absorption correction using spherical 
  harmonics, implemented in SCALE3 ABSPACK scaling algorithm.
;
_exptl_crystal_colour            'clear colourless'
_exptl_crystal_density_diffrn    1.365
_exptl_crystal_description       prism
_exptl_crystal_F_000             308
_exptl_crystal_size_max          0.150
_exptl_crystal_size_mid          0.110
_exptl_crystal_size_min          0.070
_refine_diff_density_max         0.302
_refine_diff_density_min         -0.421
_refine_diff_density_rms         0.061
_refine_ls_extinction_method     none
_refine_ls_goodness_of_fit_ref   1.308
_refine_ls_hydrogen_treatment    mixed
_refine_ls_matrix_type           full
_refine_ls_number_parameters     189
_refine_ls_number_reflns         2962
_refine_ls_number_restraints     0
_refine_ls_restrained_S_all      1.308
_refine_ls_R_factor_all          0.0365
_refine_ls_R_factor_gt           0.0357
_refine_ls_shift/su_max          0.000
_refine_ls_shift/su_mean         0.000
_refine_ls_structure_factor_coef Fsqd
_refine_ls_weighting_details
'w=1/[\s^2^(Fo^2^)+(0.03P)^2^+0.3P] where P=(Fo^2^+2Fc^2^)/3'
_refine_ls_weighting_scheme      calc
_refine_ls_wR_factor_gt          0.0875
_refine_ls_wR_factor_ref         0.0879
_reflns_Friedel_coverage         0.000
_reflns_number_gt                2896
_reflns_number_total             2962
_reflns_threshold_expression     'I > 2\s(I)'
_cod_data_source_file            c6sc01011c2.cif
_cod_data_source_block           3_kaj14mm_s1360
_cod_depositor_comments
'Adding full bibliography for 1543095--1543098.cif.'
_cod_database_code               1543096
_shelx_shelxl_version_number     2014/7
_shelx_space_group_comment
;
The symmetry employed for this shelxl refinement is uniquely defined
by the following loop, which should always be used as a source of
symmetry information in preference to the above space-group names.
They are only intended as comments.
;
_shelx_estimated_absorpt_t_min   0.743
_shelx_estimated_absorpt_t_max   0.866
_shelx_res_file
;

    kaj14mm_s1360.res created by SHELXL-2014/7


TITL kaj14mm_s1360 in P-1
CELL  1.54178   8.4511   8.5911  10.8922   73.717   84.157   69.545
ZERR     1.00   0.0002   0.0002   0.0002    0.002    0.002    0.002
LATT   1
SFAC  C    H    N    O    S
UNIT  28   32   4    6    2
TEMP    -123
L.S.  6
MERG   2
FMAP   2
PLAN   20
LIST 4
ACTA
BOND $H
CONF
HTAB
EQIV $1 -x+1, -y-1, -z+1
HTAB N1 O1_$1
HTAB N2 O3
HTAB C5 O2
EQIV $2 -x+1, -y, -z
HTAB C12 O3_$2
EQIV $3 x-1, y+1, z
HTAB C13 O1_$3
EQIV $4 -x+1, -y, -z+1
HTAB C13 O2_$4
SIZE     0.07   0.11   0.15
REM DFIX 0.94 N1 H1N N2 H2N
WGHT    0.030000    0.300000
FVAR       1.26144
O1    4    0.693295   -0.419010    0.543308    11.00000    0.03843    0.01963 =
         0.02727   -0.00165   -0.00617   -0.00911
O2    4    0.791946   -0.070120    0.408656    11.00000    0.03096    0.02992 =
         0.03702   -0.00275   -0.00463   -0.01485
N1    3    0.339466   -0.248158    0.394214    11.00000    0.03035    0.01999 =
         0.02002   -0.00305    0.00222   -0.01207
H1N   2    0.352342   -0.354402    0.428375    11.00000    0.03174
N2    3    0.423202    0.112566    0.270866    11.00000    0.02406    0.01926 =
         0.02216   -0.00326    0.00100   -0.00841
H2N   2    0.329053    0.135426    0.243412    11.00000    0.02936
C1    1    0.466224   -0.193638    0.402197    11.00000    0.02832    0.01851 =
         0.01534   -0.00615    0.00444   -0.00836
C2    1    0.625446   -0.276056    0.470376    11.00000    0.03116    0.01959 =
         0.01767   -0.00706    0.00177   -0.00919
C3    1    0.670542   -0.115991    0.410060    11.00000    0.02867    0.01995 =
         0.02005   -0.00630    0.00098   -0.00806
C4    1    0.503377   -0.039679    0.346749    11.00000    0.02602    0.01911 =
         0.01696   -0.00735    0.00414   -0.00886
C5    1    0.508906    0.237665    0.212654    11.00000    0.03066    0.01788 =
         0.02273   -0.00485    0.00269   -0.01095
AFIX  23
H5A   2    0.602437    0.219708    0.268604    11.00000   -1.20000
H5B   2    0.428254    0.355707    0.204687    11.00000   -1.20000
AFIX   0
C6    1    0.578309    0.219300    0.081993    11.00000    0.02524    0.01659 =
         0.02142   -0.00417    0.00134   -0.01034
C7    1    0.731653    0.093965    0.069348    11.00000    0.02727    0.02633 =
         0.02335   -0.00277   -0.00413   -0.00311
AFIX  43
H7    2    0.795260    0.021239    0.143511    11.00000   -1.20000
AFIX   0
C8    1    0.792948    0.073776   -0.050240    11.00000    0.02167    0.02778 =
         0.02770   -0.00742   -0.00108   -0.00214
AFIX  43
H8    2    0.896427   -0.014838   -0.056940    11.00000   -1.20000
AFIX   0
C9    1    0.704704    0.181733   -0.160459    11.00000    0.02149    0.01927 =
         0.02262   -0.00583    0.00114   -0.01060
C10   1    0.550055    0.305400   -0.147674    11.00000    0.02808    0.01926 =
         0.02221   -0.00310   -0.00364   -0.00509
AFIX  43
H10   2    0.486961    0.378915   -0.221872    11.00000   -1.20000
AFIX   0
C11   1    0.486688    0.322717   -0.027570    11.00000    0.02384    0.01892 =
         0.02608   -0.00606   -0.00039   -0.00333
AFIX  43
H11   2    0.379609    0.406161   -0.020397    11.00000   -1.20000
AFIX   0
C12   1    0.781619    0.162247   -0.289893    11.00000    0.02337    0.02391 =
         0.02446   -0.00695    0.00295   -0.01026
AFIX  23
H12A  2    0.874999    0.210083   -0.307856    11.00000   -1.20000
H12B  2    0.830195    0.038199   -0.286343    11.00000   -1.20000
AFIX   0

REM **************************************
REM DMSO
REM **************************************
S1    5   -0.056602    0.393955    0.190150    11.00000    0.02527    0.02448 =
         0.03394   -0.00660   -0.00797   -0.00332
O3    4    0.102404    0.276995    0.146284    11.00000    0.03562    0.03264 =
         0.02946   -0.01141    0.00153   -0.00537
C13   1   -0.073596    0.304770    0.355479    11.00000    0.06610    0.04327 =
         0.04076   -0.00428    0.02485   -0.00389
AFIX  33
H13A  2   -0.176487    0.377302    0.388843    11.00000   -1.50000
H13B  2   -0.078758    0.188727    0.370365    11.00000   -1.50000
H13C  2    0.025001    0.298650    0.399235    11.00000   -1.50000
AFIX   0
C14   1   -0.012310    0.578920    0.196699    11.00000    0.07499    0.03484 =
         0.06083   -0.02247    0.01711   -0.02580
AFIX  33
H14A  2   -0.113394    0.659781    0.225146    11.00000   -1.50000
H14B  2    0.079870    0.544512    0.257027    11.00000   -1.50000
H14C  2    0.021031    0.634519    0.111536    11.00000   -1.50000
AFIX   0
HKLF    4

REM  kaj14mm_s1360 in P-1
REM R1 =  0.0357 for    2896 Fo > 4sig(Fo)  and  0.0365 for all    2962 data
REM    189 parameters refined using      0 restraints

END

WGHT      0.0482      0.3759

REM Instructions for potential hydrogen bonds
HTAB N1 O1_$1
HTAB N2 O3
HTAB C5 O2
HTAB C12 O3_$2
HTAB C13 O1_$3
HTAB C13 O2_$4

REM Highest difference peak  0.302,  deepest hole -0.421,  1-sigma level  0.061
Q1    1   0.5427 -0.2584  0.4363  11.00000  0.05    0.30
Q2    1   0.4739 -0.1141  0.3651  11.00000  0.05    0.28
Q3    1  -0.0043  0.3413  0.3762  11.00000  0.05    0.27
Q4    1   0.5467  0.2262  0.1447  11.00000  0.05    0.26
Q5    1  -0.0655  0.3565  0.2736  11.00000  0.05    0.24
Q6    1   0.7334  0.1753 -0.2254  11.00000  0.05    0.24
Q7    1   0.6706 -0.2139  0.4534  11.00000  0.05    0.23
Q8    1   0.5487  0.2867  0.0283  11.00000  0.05    0.21
Q9    1  -0.1100  0.3985  0.4146  11.00000  0.05    0.19
Q10   1   0.6277  0.2416 -0.1548  11.00000  0.05    0.17
Q11   1  -0.3428  0.7807  0.2406  11.00000  0.05    0.17
Q12   1  -0.1076  0.6317  0.1565  11.00000  0.05    0.17
Q13   1  -0.1429  0.1990  0.3405  11.00000  0.05    0.17
Q14   1  -0.0771  0.6510  0.0723  11.00000  0.05    0.17
Q15   1   0.5913 -0.0619  0.3583  11.00000  0.05    0.16
Q16   1   0.1961  0.6567 -0.0593  11.00000  0.05    0.16
Q17   1   0.6556  0.1769  0.0760  11.00000  0.05    0.16
Q18   1   0.7451  0.1238 -0.1080  11.00000  0.05    0.16
Q19   1   0.6251  0.1484  0.0802  11.00000  0.05    0.15
Q20   1   0.7196 -0.1300  0.2040  11.00000  0.05    0.15
;
_shelx_res_checksum              65296
_shelx_hkl_file
;
   0   0   1   31.11    1.00
   0   0  -1   36.27    0.93
   0   0  -1   35.52    0.96
   0   0   1   36.34    0.79
   0   0  -1   36.46    0.95
   0   0  -1   32.10    0.97
   0   0   1   35.48    1.03
   0   0   2  330.15    4.55
   0   0  -2  330.17    4.09
   0   0  -2  335.34    4.43
   0   0   2  339.94    4.71
   0   0   2  334.17    3.32
   0   0  -2  313.60    3.93
   0   0   2  311.97    4.33
   0   0  -3 1120.33    9.15
   0   0  -3 1060.16   10.11
   0   0  -3 1145.58   10.20
   0   0  -3 1042.66   10.41
   0   0   3 1057.72   10.17
   0   0   3 1122.54   10.67
   0   0  -3 1073.90    9.90
   0   0  -3  998.82   10.39
   0   0  -3 1070.76    9.91
   0   0  -3 1139.51    9.41
   0   0   3 1131.59    7.50
   0   0   3 1094.95   10.06
   0   0  -3 1074.31    9.96
   0   0  -4  872.11   10.59
   0   0  -4  839.58   10.42
   0   0   4  825.96   10.20
   0   0   4  820.68   10.24
   0   0  -4  840.10   11.28
   0   0  -4  866.13    9.69
   0   0  -4  851.69   10.53
   0   0   4  797.02   10.81
   0   0  -4  814.10    9.43
   0   0  -4  826.99    9.24
   0   0  -4  865.31   10.48
   0   0   4  803.65   10.26
   0   0   4  829.47    7.56
   0   0  -4  841.75   10.64
   0   0   4  821.07   10.12
   0   0  -4  882.24   11.37
   0   0   4  807.75   10.09
   0   0   4  811.75   10.14
   0   0   4  883.69   10.81
   0   0   4  816.56   10.20
   0   0   5 2076.51   18.73
   0   0   5 2190.57   19.59
   0   0   5 2122.70   18.90
   0   0  -5 2189.47   17.68
   0   0   5 2135.40   19.01
   0   0  -5 2202.99   19.38
   0   0   5 2145.19   18.99
   0   0  -5 2194.55   17.29
   0   0  -5 2219.07   19.58
   0   0  -5 2200.38   19.85
   0   0   5 2133.23   15.75
   0   0   5 2153.88   20.35
   0   0   5 2106.05   18.91
   0   0   5 2102.80   13.24
   0   0  -5 2190.07   19.35
   0   0   5 2132.24   19.09
   0   0   5 2105.54   18.86
   0   0  -5 2208.98   17.97
   0   0  -5 2156.65   20.34
   0   0  -5 2132.84   19.17
   0   0  -5 2061.69   20.29
   0   0   6    5.63    1.15
   0   0  -6    7.11    1.35
   0   0  -6    6.38    1.35
   0   0  -6    6.45    1.33
   0   0  -6    6.57    1.32
   0   0  -6    5.74    1.32
   0   0   6    6.78    1.33
   0   0   6    4.72    1.21
   0   0   6    5.17    0.90
   0   0   6    5.04    1.31
   0   0  -6    4.21    1.03
   0   0  -6    5.74    1.38
   0   0   6    4.77    1.09
   0   0  -6    6.01    1.14
   0   0   6    4.84    1.20
   0   0  -6    4.30    0.82
   0   0   6    6.22    1.28
   0   0   6    5.01    1.10
   0   0   6    4.35    1.11
   0   0  -6    5.28    1.09
   0   0   7    7.01    1.53
   0   0   7    7.56    1.48
   0   0   7    6.34    1.37
   0   0   7    7.42    1.50
   0   0  -7    7.74    1.70
   0   0  -7    6.63    1.61
   0   0  -7    6.62    1.51
   0   0   7    6.86    1.47
   0   0  -7    8.55    1.56
   0   0  -7    4.04    1.26
   0   0   7   10.66    1.73
   0   0  -7    6.30    1.31
   0   0   7    6.96    1.55
   0   0  -7    7.14    1.57
   0   0  -7    7.23    1.52
   0   0   7    6.86    1.41
   0   0  -7    8.41    1.53
   0   0   8  349.12   10.90
   0   0  -8  382.12   11.99
   0   0  -8  357.31    6.76
   0   0   8  342.97   10.44
   0   0  -8  347.60    6.39
   0   0  -8  357.67    6.71
   0   0  -8  353.89   10.93
   0   0  -8  345.86   10.85
   0   0  -8  372.24   11.59
   0   0  -8  346.24   10.98
   0   0   8  358.59    6.64
   0   0   8  352.35   10.71
   0   0   8  359.87   10.79
   0   0  -8  362.69    6.69
   0   0  -8  348.22    9.73
   0   0   8  373.33   11.03
   0   0  -8  338.12   10.54
   0   0   8  358.42   10.85
   0   0  -8  362.29   10.11
   0   0   8  369.39   10.96
   0   0  -8  331.15   11.38
   0   0   8  367.20    6.65
   0   0   9  447.43    7.29
   0   0   9  457.18    7.78
   0   0   9  455.80    7.56
   0   0   9  428.65    6.95
   0   0  -9  445.70    7.53
   0   0  -9  468.91    7.89
   0   0  -9  462.53    8.04
   0   0   9  465.12    7.95
   0   0  -9  455.63    7.79
   0   0   9  445.17    7.28
   0   0  -9  461.29    7.96
   0   0 -10   15.06    1.50
   0   0 -10   13.16    1.44
   0   0  10   14.51    1.35
   0   0 -10   13.77    1.39
   0   0  10   14.28    1.25
   0   0  10   14.89    1.39
   0   0  10   14.92    1.47
   0   0 -10   14.72    1.40
   0   0  10   14.30    1.32
   0   0  10   13.99    1.48
   0   0 -10   15.38    1.49
   0   0 -11   13.92    1.33
   0   0  11   14.56    1.23
   0   0 -11   13.27    1.35
   0   0  11   12.09    1.14
   0   0  11   12.43    1.29
   0   0  11   12.55    1.32
   0   0 -11   12.95    1.17
   0   0 -11   10.69    1.12
   0   0 -11   10.27    1.20
   0   0  11   13.49    1.10
   0   0 -11   12.64    1.31
   0   0  12    1.47    0.55
   0   0  12    1.00    0.49
   0   0 -12    1.88    0.58
   0   0 -12    1.09    0.41
   0   0  12    1.17    0.44
   0   0 -12    1.27    0.49
   0   0 -12    1.87    0.62
   0   0 -12    1.19    0.48
   0   0 -13    0.60    0.32
   0   0 -13    0.68    0.33
   0   0  13    0.52    0.32
   0   0  13    0.14    0.32
   0   1 -12  379.56    4.99
   0   1 -12  385.71    5.23
   0  -1  12  382.10    5.07
   0  -1  12  395.84    5.17
   0  -1  12  370.98    4.58
   0   1 -12  349.72    4.14
   0   1 -12  390.88    5.17
   0  -1  12  342.29    3.85
   0   1 -11  268.26    4.89
   0  -1  11  280.90    4.83
   0   1 -11  274.52    5.52
   0  -1  11  285.49    5.42
   0  -1  11  282.64    5.44
   0  -1  11  270.77    5.02
   0   1 -11  275.08    4.98
   0   1 -11  277.25    5.42
   0   1 -11  271.50    5.33
   0   1 -11  270.96    4.65
   0  -1  10   93.55    3.33
   0   1 -10  103.96    3.78
   0   1 -10  104.19    3.51
   0   1 -10   96.07    3.59
   0  -1  10  107.04    3.67
   0   1 -10  106.76    3.74
   0  -1  10  103.19    3.67
   0   1 -10  106.46    3.60
   0   1 -10  100.72    3.34
   0  -1  10  103.70    3.37
   0  -1   9  288.43    5.87
   0   1  -9  284.32    6.31
   0   1  -9  277.33    5.81
   0   1  -9  281.54    6.38
   0   1  -9  288.01    6.34
   0   1  -9  279.66    6.02
   0  -1   9  276.38    5.94
   0  -1   9  296.98    6.34
   0  -1   9  289.20    6.17
   0   1  -8  327.46   11.08
   0  -1   8  312.77   10.75
   0   1  -8  311.24   10.64
   0  -1   8  305.67   10.38
   0  -1   8  304.96   10.95
   0   1  -8  315.64   10.73
   0   1  -8  307.84   10.00
   0  -1   8  311.54   10.48
   0  -1   8  317.73   10.55
   0  -1   8  334.38    6.45
   0  -1   8  334.20   10.84
   0   1  -8  315.65    6.24
   0   1  -8  311.97   11.47
   0  -1   8  323.99    6.43
   0  -1   8  313.57   10.91
   0   1  -8  314.14    6.06
   0   1  -8  322.14    6.59
   0   1  -8  321.06   10.10
   0   1  -8  315.78    6.55
   0  -1   8  307.02    5.95
   0   1  -8  323.58   10.88
   0  -1   8  319.89   10.68
   0  -1   8  325.15    6.26
   0   1  -8  326.44   11.40
   0   1  -8  311.31    6.43
   0   1  -7  188.21    7.98
   0  -1   7  184.63    7.43
   0   1  -7  183.30    7.55
   0   1  -7  189.28    7.85
   0   1  -7  177.82    7.99
   0  -1   7  180.22    7.64
   0   1  -7  183.95    7.10
   0   1  -7  182.25    7.12
   0  -1   7  188.93    7.47
   0  -1   7  175.70    7.40
   0   1  -7  190.00    7.78
   0  -1   7  190.99    7.56
   0  -1   7  192.82    7.59
   0   1  -7  183.81    7.54
   0   1  -7  183.28    7.13
   0  -1   7  189.39    7.52
   0  -1   7  188.48    7.19
   0  -1   7  185.66    7.85
   0   1  -6  716.15   12.78
   0   1  -6  726.85   13.53
   0  -1   6  681.73   12.34
   0  -1   6  719.13   13.55
   0  -1   6  692.32   13.53
   0  -1   6  720.93   13.28
   0  -1   6  707.07   13.10
   0   1  -6  706.03   12.62
   0   1  -6  746.22   13.64
   0  -1   6  725.03   11.68
   0   1  -6  744.71   13.81
   0   1  -6  735.97   14.38
   0  -1   6  697.95   13.64
   0   1  -6  668.01   13.97
   0   1  -6  723.73   13.81
   0   1  -6  699.63   12.51
   0  -1   6  697.51   12.99
   0  -1   6  711.78   13.13
   0  -1   6  710.42   13.15
   0   1  -5  446.34   10.11
   0   1  -5  456.09    9.56
   0   1  -5  447.84    9.54
   0  -1   5  474.02    9.93
   0   1  -5  478.71    9.22
   0   1  -5  470.38    9.67
   0  -1   5  450.86    9.32
   0   1  -5  482.06   10.07
   0  -1   5  473.05    9.49
   0  -1   5  447.60    9.31
   0  -1   5  454.20    9.01
   0  -1   5  474.22    9.74
   0  -1   5  469.67    9.49
   0   1  -5  469.13   10.16
   0   1  -5  476.23    9.34
   0   1  -5  455.92    7.76
   0  -1   5  453.92    9.82
   0  -1   5  488.00    9.69
   0   1  -4  174.97    4.87
   0  -1   4  175.19    5.09
   0   1  -4  168.98    5.10
   0   1  -4  175.54    5.45
   0  -1   4  163.87    5.19
   0   1  -4  182.46    5.25
   0  -1   4  177.15    5.11
   0  -1   4  171.42    5.06
   0  -1   4  172.26    5.06
   0  -1   4  172.52    5.06
   0  -1   4  174.19    3.05
   0  -1   4  161.76    4.70
   0   1  -4  179.75    5.41
   0   1  -4  171.03    5.18
   0  -1   4  167.85    5.25
   0   1  -4  165.23    4.07
   0   1  -4  172.82    5.02
   0  -1   3  631.96    5.39
   0   1  -3  623.97    8.15
   0  -1   3  619.72    8.30
   0   1  -3  586.13    7.66
   0  -1   3  646.01    8.45
   0  -1   3  632.01    8.59
   0   1  -3  611.51    8.61
   0  -1   3  598.82    8.57
   0  -1   3  614.96    7.84
   0   1  -3  669.89    8.62
   0   1  -3  594.26    8.87
   0  -1   3  636.66    8.50
   0  -1   3  616.34    8.30
   0   1  -3  659.51    8.77
   0  -1   3  630.23    8.81
   0   1  -3  653.39    8.59
   0   1  -3  610.97    8.81
   0  -1   3  620.26    8.31
   0   1  -3  636.81    8.47
   0  -1   2 3287.74   16.71
   0   1  -2 3610.50   16.68
   0  -1   2 3374.42   15.25
   0  -1   2 3350.46   17.28
   0   1  -2 3578.27   16.98
   0   1  -2 3756.43   17.51
   0   1  -1   10.03    0.78
   0   1  -1    9.13    0.72
   0  -1   1   10.49    0.71
   0  -1   1   10.61    0.78
   0   1  -1   10.19    0.77
   0  -1   1    9.33    0.75
   0  -1   1    9.55    0.80
   0  -1   0  266.06    3.37
   0  -1   0  255.58    2.97
   0   1   0  262.04    3.12
   0   1   0  259.72    2.93
   0   1   0  257.20    2.77
   0   1   0  255.87    3.02
   0  -1   0  255.07    2.98
   0  -1   0  263.48    3.01
   0  -1  -1  543.13    4.12
   0   1   1  539.25    4.68
   0  -1  -1  544.62    5.00
   0   1   1  549.96    4.88
   0  -1  -1  535.83    5.01
   0   1   1  555.78    4.34
   0   1   2 1342.46    9.01
   0   1   2 1350.77    9.58
   0  -1  -2 1383.21    8.89
   0  -1  -2 1311.26    9.33
   0  -1  -2 1414.03    8.06
   0   1   2 1358.68    4.76
   0   1   2 1362.83    8.77
   0   1   2 1464.36    5.59
   0  -1  -2 1299.43    9.48
   0  -1  -2 1370.30    6.25
   0  -1  -3 8915.80   29.56
   0  -1  -3 8957.52   31.25
   0  -1  -4  751.63   10.42
   0  -1  -4  786.35    9.64
   0   1   4  772.82   10.08
   0  -1  -4  714.28    7.67
   0  -1  -4  759.47    8.53
   0   1   4  727.54    9.35
   0   1   4  778.24   10.34
   0  -1  -4  709.53    9.83
   0   1   4  758.45    9.46
   0  -1  -4  754.44    9.60
   0  -1  -4  775.26    9.66
   0  -1  -4  749.10    9.56
   0  -1  -4  762.92   10.01
   0   1   4  772.68    6.21
   0   1   4  742.15    9.39
   0   1   4  723.75    9.26
   0   1   4  739.47    9.40
   0  -1  -4  755.66    8.56
   0   1   4  733.11    8.18
   0  -1  -4  783.46    9.89
   0   1   4  756.97    9.50
   0  -1  -5  298.21    6.97
   0   1   5  291.52    4.49
   0   1   5  279.88    6.67
   0  -1  -5  270.07    5.73
   0   1   5  292.35    6.84
   0  -1  -5  292.13    7.19
   0   1   5  296.57    6.88
   0   1   5  290.87    6.83
   0  -1  -5  295.11    6.16
   0  -1  -5  276.00    6.51
   0  -1  -5  293.35    7.00
   0  -1  -5  287.12    7.38
   0   1   5  281.76    5.64
   0  -1  -5  301.77    7.00
   0  -1  -5  285.53    7.05
   0  -1  -5  275.77    5.58
   0   1   5  286.71    7.04
   0   1   5  284.05    6.74
   0  -1  -6 1450.29   14.60
   0  -1  -6 1483.60   15.82
   0  -1  -6 1476.32   18.70
   0   1   6 1418.21   17.45
   0   1   6 1470.96   17.28
   0   1   6 1379.34   13.47
   0  -1  -6 1404.92   16.40
   0  -1  -6 1399.87   18.58
   0  -1  -6 1370.13   16.90
   0  -1  -6 1394.43   14.47
   0  -1  -6 1402.56   17.24
   0  -1  -6 1402.65   17.16
   0  -1  -6 1434.09   17.76
   0   1   6 1480.87   17.43
   0   1   6 1436.17   17.08
   0   1   6 1490.38   17.39
   0   1   6 1424.72   16.98
   0  -1  -6 1462.82   17.94
   0   1   6 1437.88   17.12
   0   1   7    0.55    0.58
   0  -1  -7    0.05    0.52
   0  -1  -7    0.47    0.61
   0   1   7    1.55    0.84
   0  -1  -7    0.39    0.50
   0  -1  -7    3.16    0.90
   0  -1  -7    0.89    0.82
   0   1   7    0.88    0.68
   0  -1  -7    1.08    0.72
   0   1   7    1.25    0.70
   0   1   7    1.72    0.81
   0  -1  -7    0.93    0.68
   0  -1  -7    2.14    0.91
   0   1   7    0.52    0.56
   0   1   7    1.14    0.70
   0  -1  -7    0.33    0.60
   0  -1  -7    1.36    0.75
   0   1   8 1250.84   19.88
   0  -1  -8 1282.77   20.44
   0  -1  -8 1273.59   20.62
   0  -1  -8 1299.03   20.84
   0  -1  -8 1287.73   20.29
   0  -1  -8 1303.19   21.41
   0   1   8 1254.80   19.89
   0   1   8 1238.42   19.87
   0  -1  -8 1269.81   21.83
   0   1   8 1254.49   19.93
   0   1   8 1265.02   19.69
   0   1   8 1313.59   20.24
   0  -1  -8 1329.55   18.43
   0   1   8 1265.32   20.03
   0   1   8 1284.66   20.10
   0  -1  -8 1338.88   20.80
   0  -1  -9   53.59    4.59
   0  -1  -9   59.75    4.96
   0   1   9   55.93    4.54
   0   1   9   58.24    4.64
   0  -1  -9   62.81    4.84
   0   1   9   50.94    2.41
   0  -1  -9   55.03    2.76
   0  -1  -9   53.40    4.53
   0  -1  -9   61.54    4.83
   0   1   9   42.55    3.91
   0   1   9   56.75    4.58
   0   1   9   59.66    4.73
   0   1   9   55.04    4.50
   0  -1  -9   60.13    4.79
   0   1   9   57.25    4.59
   0   1   9   53.10    2.66
   0  -1  -9   52.24    2.63
   0  -1  -9   56.79    2.77
   0   1   9   53.35    2.65
   0   1   9   53.75    4.40
   0   1   9   54.55    2.73
   0  -1  -9   58.36    5.02
   0   1   9   52.26    2.56
   0  -1  -9   55.89    2.76
   0  -1 -10   13.43    1.40
   0  -1 -10   12.32    1.39
   0  -1 -10   12.72    1.40
   0   1  10   13.44    1.43
   0   1  10   13.89    1.28
   0   1  10   13.49    1.42
   0   1  10   13.47    1.41
   0   1  10   14.52    1.43
   0  -1 -10   14.08    1.41
   0  -1 -10   13.51    1.44
   0  -1 -11   27.62    1.91
   0  -1 -11   28.32    1.87
   0  -1 -11   28.28    1.92
   0  -1 -11   28.27    1.93
   0   1  11   27.86    1.94
   0   1  11   26.75    1.60
   0   1  11   28.68    1.86
   0  -1 -11   27.93    1.80
   0   1  11   30.24    1.98
   0   1  11   30.38    1.87
   0   1  12   12.46    1.04
   0   1  12   12.40    1.19
   0   1  12   12.48    1.06
   0  -1 -12   13.99    1.25
   0   1  12   12.85    1.19
   0  -1 -12   11.79    1.06
   0  -1 -12   12.08    1.13
   0  -1 -12   11.51    1.03
   0  -1 -12   12.69    1.18
   0   1  13   96.99    2.42
   0  -1 -13   96.51    2.31
   0  -1 -13   95.28    2.26
   0  -1 -13   92.23    2.00
   0  -1 -13   99.71    2.40
   0   1  13   96.95    2.36
   0   2 -12    2.86    0.46
   0   2 -12    2.91    0.41
   0  -2  12    2.56    0.43
   0   2 -12    2.72    0.46
   0   2 -11    2.44    0.67
   0   2 -11    1.96    0.52
   0  -2  11    2.51    0.64
   0   2 -11    3.04    0.64
   0  -2  11    2.12    0.57
   0  -2  11    3.55    0.65
   0   2 -11    2.28    0.63
   0  -2  10    0.47    0.47
   0   2 -10    1.22    0.68
   0  -2  10    1.34    0.56
   0  -2  10    1.27    0.57
   0   2 -10    1.41    0.49
   0  -2  10    1.28    0.59
   0   2 -10    0.97    0.51
   0   2 -10    1.64    0.59
   0   2  -9  389.52    7.42
   0   2  -9  366.00    6.61
   0   2  -9  383.44    6.62
   0   2  -9  392.37    7.45
   0  -2   9  396.20    6.99
   0  -2   9  399.36    7.06
   0  -2   9  380.57    6.97
   0  -2   9  409.57    7.27
   0   2  -9  400.74    7.37
   0   2  -9  396.69    7.29
   0   2  -8  295.79    6.44
   0   2  -8  285.06    6.07
   0  -2   8  291.76    6.06
   0  -2   8  289.08    6.03
   0   2  -8  302.09    6.52
   0   2  -8  292.74    6.29
   0  -2   8  293.43    5.63
   0  -2   8  292.92    6.14
   0   2  -8  303.92    6.50
   0  -2   8  302.36    6.26
   0   2  -8  289.36    5.83
   0  -2   7  391.95   11.96
   0   2  -7  402.91   11.80
   0  -2   7  397.51    6.74
   0  -2   7  375.80   10.25
   0   2  -7  402.53    7.24
   0  -2   7  377.47    6.71
   0   2  -7  400.72   12.52
   0   2  -7  407.32   12.18
   0   2  -7  413.15   11.94
   0   2  -7  393.23   11.64
   0  -2   7  400.96   11.57
   0   2  -7  396.46    7.16
   0  -2   7  393.43    6.71
   0   2  -7  390.02    7.01
   0  -2   7  391.68    6.78
   0  -2   7  411.31   11.96
   0  -2   7  412.48   11.76
   0  -2   7  374.73   11.64
   0   2  -7  387.19   11.33
   0  -2   7  400.18   11.53
   0   2  -7  418.71   12.11
   0  -2   7  419.70   11.81
   0   2  -7  393.24   11.13
   0  -2   7  394.19   11.52
   0   2  -7  400.34    7.21
   0   2  -6  178.51    7.08
   0  -2   6  177.40    7.09
   0  -2   6  177.60    7.08
   0  -2   6  175.48    7.05
   0  -2   6  177.59    7.11
   0   2  -6  172.30    7.37
   0   2  -6  164.48    6.31
   0   2  -6  173.31    7.11
   0   2  -6  169.04    7.51
   0   2  -6  168.12    7.01
   0  -2   6  164.98    7.17
   0  -2   6  162.76    6.34
   0   2  -6  172.77    7.18
   0  -2   6  176.46    7.09
   0   2  -6  167.87    6.70
   0  -2   6  169.78    6.39
   0  -2   6  166.77    7.02
   0   2  -6  167.44    6.99
   0  -2   6  163.84    7.03
   0   2  -5  219.71    7.35
   0   2  -5  218.63    7.20
   0   2  -5  227.95    6.68
   0  -2   5  208.93    7.03
   0  -2   5  212.34    6.47
   0   2  -5  209.48    7.06
   0   2  -5  214.15    7.08
   0  -2   5  210.47    7.02
   0  -2   5  203.37    7.07
   0   2  -5  212.65    7.10
   0   2  -5  207.35    7.52
   0  -2   5  201.69    7.07
   0  -2   5  214.89    7.06
   0  -2   5  235.66    7.73
   0  -2   5  209.14    7.02
   0   2  -5  215.31    7.43
   0  -2   5  203.01    6.90
   0  -2   4 3470.74   25.43
   0   2  -4 3365.69   18.97
   0  -2   4 3505.12   25.48
   0  -2   4 3461.81   25.31
   0   2  -4 3643.97   27.15
   0  -2   4 3450.05   25.76
   0   2  -4 3504.79   25.27
   0  -2   4 3279.02   22.61
   0  -2   4 3372.07   25.66
   0  -2   4 3339.34   26.16
   0  -2   4 3539.00   25.58
   0   2  -4 3500.42   25.75
   0   2  -4 3491.69   25.64
   0   2  -4 3523.89   25.77
   0   2  -4 3682.59   26.65
   0   2  -4 3514.96   27.56
   0   2  -4 3420.82   23.11
   0   2  -4 3566.39   25.91
   0  -2   4 3563.32   25.61
   0  -2   3  106.76    4.00
   0  -2   3  103.36    3.92
   0   2  -3  106.87    4.02
   0  -2   3  100.17    3.86
   0   2  -3  105.03    3.98
   0  -2   3  106.96    3.98
   0  -2   3  113.12    4.09
   0   2  -3  100.06    3.94
   0  -2   3  103.81    3.96
   0  -2   3  101.45    3.51
   0   2  -3  104.87    4.13
   0   2  -3  105.18    4.06
   0   2  -3  100.95    3.90
   0   2  -3   97.04    3.87
   0  -2   3   95.95    3.99
   0   2  -3  100.20    3.88
   0  -2   3  103.14    3.99
   0   2  -3  101.38    4.18
   0  -2   2 1504.60   13.52
   0   2  -2 1460.90   13.17
   0  -2   2 1511.60   13.27
   0   2  -2 1565.94   13.25
   0  -2   2 1508.78   13.14
   0  -2   2 1457.94   13.09
   0   2  -2 1485.59   13.33
   0   2  -2 1517.11   13.40
   0  -2   2 1519.72   13.41
   0   2  -2 1457.57   13.00
   0  -2   2 1424.27   11.62
   0   2  -2 1472.69   14.05
   0  -2   2 1530.26   13.36
   0   2  -2 1493.80   13.45
   0   2  -2 1499.68   13.72
   0  -2   2 1507.05   13.27
   0  -2   2 1473.10   13.17
   0   2  -2 1505.27   13.38
   0  -2   2 1493.89   13.64
   0  -2   1 2090.73   13.61
   0   2  -1 2184.96   14.49
   0   2  -1 2083.46   13.70
   0  -2   1 2144.56   14.38
   0  -2   1 2058.70   13.91
   0   2  -1 2230.68   13.88
   0  -2   0 2549.09   14.94
   0   2   0 2532.20   13.98
   0   2   0 2557.43   13.86
   0   2   0 2533.55   13.18
   0  -2   0 2563.57   13.52
   0  -2   0 2451.78   13.29
   0  -2   0 2454.09   13.34
   0   2   0 2488.39   12.52
   0   2   1 1225.36    9.14
   0   2   1 1259.07   10.02
   0   2   1 1257.94    7.09
   0  -2  -1 1248.14   10.50
   0  -2  -1 1247.46   10.03
   0  -2  -1 1236.84    9.97
   0   2   1 1227.92    9.42
   0   2   2 1297.93   10.52
   0   2   2 1239.79   10.73
   0  -2  -2 1257.89    9.00
   0  -2  -2 1317.07   10.81
   0  -2  -2 1293.83   11.12
   0   2   2 1295.95    9.60
   0  -2  -2 1271.00   11.07
   0  -2  -2 1255.51   10.41
   0   2   2 1292.01    5.91
   0  -2  -2 1260.07   11.21
   0  -2  -2 1354.50   11.46
   0  -2  -2 1245.14   10.70
   0  -2  -2 1273.86   10.40
   0  -2  -2 1227.68   10.99
   0  -2  -3 2053.34   14.83
   0   2   3 2042.23   14.88
   0  -2  -3 2065.51   14.97
   0   2   3 2138.09   15.06
   0   2   3 2116.37   15.00
   0   2   3 2116.98   15.30
   0   2   3 2175.63   15.77
   0   2   3 2008.35   14.79
   0   2   3 2036.74   10.10
   0  -2  -3 2166.59   12.94
   0  -2  -3 2155.92   15.03
   0  -2  -3 2123.49   16.07
   0  -2  -3 2143.47   16.18
   0  -2  -3 2041.18   14.77
   0   2   3 2144.11   15.06
   0  -2  -3 2150.34   16.02
   0   2   3 2061.08   14.78
   0   2   3 2113.12   14.90
   0  -2  -3 2125.60   15.02
   0  -2  -3 2080.76   15.41
   0   2   4  667.75    9.21
   0  -2  -4  686.30   10.21
   0   2   4  707.24    9.84
   0   2   4  693.32    9.66
   0   2   4  680.01    9.57
   0  -2  -4  682.43    9.66
   0  -2  -4  690.33   10.78
   0  -2  -4  681.97   10.01
   0  -2  -4  742.12   10.66
   0  -2  -4  724.73    8.47
   0   2   4  687.16   10.08
   0   2   4  713.56    9.86
   0  -2  -4  695.96    9.97
   0  -2  -4  705.91    9.77
   0   2   4  696.64    9.67
   0   2   4  700.70    9.67
   0  -2  -4  681.15    9.62
   0  -2  -4  700.78    9.35
   0   2   4  706.07    9.73
   0   2   5  505.65    9.21
   0  -2  -5  498.28    9.19
   0   2   5  491.10    9.02
   0   2   5  500.17    9.14
   0   2   5  509.85    9.25
   0  -2  -5  502.52    9.47
   0   2   5  491.05    9.04
   0   2   5  478.79    9.43
   0  -2  -5  499.18    9.15
   0  -2  -5  479.10    9.96
   0   2   5  507.98    9.13
   0   2   5  486.60    8.46
   0  -2  -5  499.13    9.23
   0   2   5  449.08    8.72
   0  -2  -5  501.82    9.67
   0  -2  -5  510.95    8.00
   0  -2  -5  481.86    9.70
   0  -2  -5  507.05    9.48
   0  -2  -5  494.91    8.56
   0   2   6   24.69    2.35
   0  -2  -6   23.84    2.33
   0   2   6   24.44    2.35
   0   2   6   24.56    2.11
   0   2   6   23.17    2.29
   0  -2  -6   23.07    2.48
   0   2   6   34.66    2.88
   0   2   6   23.19    2.28
   0   2   6   24.71    2.34
   0  -2  -6   26.71    2.07
   0  -2  -6   25.84    2.14
   0   2   6   23.39    2.25
   0  -2  -6   28.09    2.51
   0  -2  -6   24.21    2.50
   0  -2  -6   24.83    2.42
   0  -2  -6   23.07    2.29
   0   2   6   22.68    2.24
   0  -2  -6   22.10    2.23
   0  -2  -6   24.00    2.45
   0  -2  -7   12.57    2.10
   0   2   7   14.36    1.95
   0   2   7   13.34    1.87
   0   2   7   14.85    2.02
   0  -2  -7   13.16    2.01
   0  -2  -7   12.18    1.86
   0   2   7   11.49    1.77
   0   2   7   12.41    1.83
   0  -2  -7   13.16    2.07
   0  -2  -7   13.33    1.89
   0   2   7   13.52    1.98
   0  -2  -7   12.80    1.89
   0   2   7   12.69    1.86
   0  -2  -7   14.24    1.70
   0   2   7   11.65    1.81
   0  -2  -7   12.63    1.89
   0  -2  -7   12.37    2.00
   0   2   7    8.88    1.34
   0  -2  -8   56.67    4.66
   0   2   8   53.31    4.08
   0  -2  -8   52.07    4.13
   0  -2  -8   52.62    4.33
   0   2   8   51.95    4.19
   0   2   8   57.43    4.28
   0   2   8   55.46    4.16
   0   2   8   55.61    4.21
   0  -2  -8   56.70    4.42
   0   2   8   53.42    4.09
   0  -2  -8   57.33    4.25
   0   2   8   53.37    4.10
   0  -2  -8   52.95    4.44
   0   2   8   56.75    4.26
   0  -2  -8   57.00    4.32
   0  -2  -8   49.29    4.02
   0  -2  -9   62.68    2.94
   0  -2  -9   63.47    4.96
   0  -2  -9   63.12    4.89
   0  -2  -9   59.20    5.06
   0   2   9   59.46    2.75
   0   2   9   56.91    4.59
   0   2   9   62.25    4.74
   0  -2  -9   60.03    2.88
   0  -2  -9   59.35    4.76
   0   2   9   59.75    2.69
   0  -2  -9   60.95    5.04
   0   2   9   59.60    4.62
   0   2   9   63.43    4.80
   0  -2  -9   63.87    2.67
   0   2   9   64.04    4.83
   0   2   9   62.50    2.86
   0   2   9   60.45    2.81
   0  -2  -9   63.67    2.90
   0   2   9   55.91    4.48
   0  -2  -9   62.88    4.86
   0   2   9   61.21    4.65
   0  -2  -9   58.70    4.92
   0   2   9   57.72    2.81
   0   2  10   20.81    1.70
   0   2  10   21.15    1.73
   0  -2 -10   23.15    1.81
   0   2  10   22.95    1.82
   0  -2 -10   21.85    1.77
   0  -2 -10   21.03    1.79
   0   2  10   22.17    1.80
   0  -2 -10   21.37    1.53
   0  -2 -10   19.95    1.59
   0  -2 -10   21.68    1.75
   0   2  11  115.99    3.83
   0  -2 -11  111.91    3.40
   0  -2 -11  117.58    3.81
   0  -2 -11  116.31    3.88
   0  -2 -11  115.56    3.88
   0   2  11  114.84    3.77
   0   2  11  114.07    3.71
   0   2  11  114.28    3.80
   0  -2 -11  112.87    3.72
   0   2  12   14.04    1.24
   0   2  12   12.99    1.17
   0  -2 -12   12.23    1.19
   0  -2 -12   12.34    1.16
   0  -2 -12   11.26    0.98
   0   2  12   11.52    1.11
   0   2  12   12.09    1.13
   0  -2 -12   12.58    1.17
   0  -2 -12   11.39    1.16
   0   2  13  118.74    2.63
   0  -2 -13  117.93    2.59
   0   2  13  114.99    2.44
   0  -2 -13  120.19    2.75
   0   2  13  120.24    2.77
   0  -2 -13  117.00    2.59
   0   2  13  109.90    2.42
   0  -2 -13  119.57    2.76
   0  -3  11   57.64    1.80
   0   3 -11   57.38    1.84
   0  -3  11   60.19    1.88
   0   3 -11   58.75    1.90
   0   3 -11   56.18    1.73
   0   3 -10  552.53    7.05
   0   3 -10  538.67    7.02
   0   3 -10  561.46    7.32
   0  -3  10  561.48    7.22
   0   3 -10  563.61    7.42
   0  -3  10  559.06    6.55
   0  -3  10  541.02    6.58
   0  -3  10  552.69    7.02
   0  -3   9   47.14    2.24
   0   3  -9   44.91    2.40
   0  -3   9   45.72    2.09
   0   3  -9   45.09    2.41
   0   3  -9   43.13    2.30
   0   3  -9   46.83    2.30
   0  -3   9   40.74    2.23
   0   3  -9   45.75    2.47
   0  -3   9   42.05    2.28
   0  -3   9   48.29    2.32
   0  -3   8    0.97    0.61
   0   3  -8    1.33    0.63
   0   3  -8    1.08    0.64
   0   3  -8    0.62    0.49
   0   3  -8    2.54    0.71
   0  -3   8    0.71    0.54
   0  -3   8    0.18    0.42
   0  -3   8    0.52    0.44
   0   3  -8    0.42    0.50
   0  -3   7   30.00    1.89
   0  -3   7   28.85    3.22
   0   3  -7   28.07    3.15
   0   3  -7   28.64    2.06
   0  -3   7   30.69    1.95
   0   3  -7   26.31    3.26
   0   3  -7   26.85    1.98
   0  -3   7   28.49    1.93
   0   3  -7   31.00    2.15
   0  -3   7   27.49    3.42
   0  -3   7   27.23    1.89
   0  -3   7   30.62    1.93
   0  -3   7   28.63    1.75
   0   3  -7   29.91    2.07
   0   3  -7   29.36    1.98
   0   3  -6  169.68    8.03
   0   3  -6  160.58    4.55
   0  -3   6  164.52    7.10
   0  -3   6  171.59    4.46
   0  -3   6  158.49    7.42
   0   3  -6  159.34    7.38
   0  -3   6  168.01    7.64
   0  -3   6  176.82    4.41
   0   3  -6  182.26    7.94
   0   3  -6  163.18    4.50
   0   3  -6  175.80    7.77
   0  -3   6  171.51    4.46
   0  -3   6  169.25    7.49
   0  -3   6  176.27    7.70
   0  -3   6  166.59    7.75
   0   3  -6  178.93    8.04
   0   3  -6  168.99    4.74
   0   3  -6  161.18    4.62
   0   3  -6  176.81    7.74
   0   3  -6  168.11    4.52
   0  -3   6  165.96    7.50
   0  -3   6  174.46    7.63
   0  -3   5  371.18   10.26
   0   3  -5  379.33   10.81
   0   3  -5  346.68    9.99
   0   3  -5  368.25   10.38
   0  -3   5  354.06   10.12
   0  -3   5  382.11   10.47
   0   3  -5  376.78   10.51
   0  -3   5  365.48   10.34
   0  -3   5  361.78   10.15
   0   3  -5  382.01   11.09
   0  -3   5  356.81   10.42
   0  -3   5  372.51   10.34
   0   3  -5  343.62   10.01
   0   3  -5  374.92   10.43
   0  -3   4  657.34   12.51
   0   3  -4  660.45   12.73
   0  -3   4  643.41   12.50
   0  -3   4  663.61   12.56
   0   3  -4  585.88   11.85
   0  -3   4  590.96   12.29
   0   3  -4  657.90   12.73
   0  -3   4  617.00   12.12
   0   3  -4  642.62   13.11
   0   3  -4  616.06   12.25
   0   3  -4  618.15   10.70
   0   3  -4  647.00   12.81
   0  -3   4  665.54   12.62
   0  -3   4  618.11   12.15
   0   3  -4  639.00   12.45
   0  -3   4  631.19   10.78
   0   3  -3  205.68    6.43
   0   3  -3  213.36    6.89
   0  -3   3  219.39    6.61
   0  -3   3  212.49    6.53
   0   3  -3  207.20    6.50
   0   3  -3  215.96    6.55
   0  -3   3  203.09    6.33
   0   3  -3  211.74    6.70
   0  -3   3  223.74    6.78
   0   3  -3  213.72    6.96
   0  -3   3  213.43    5.77
   0   3  -3  208.47    6.51
   0  -3   3  215.70    6.59
   0  -3   3  207.06    6.65
   0  -3   3  211.44    6.56
   0   3  -3  203.05    6.39
   0   3  -3  203.11    6.42
   0  -3   3  193.13    6.37
   0  -3   2   67.42    3.53
   0   3  -2   69.58    3.39
   0  -3   2   71.15    3.50
   0  -3   2   68.66    3.33
   0   3  -2   67.07    3.37
   0  -3   2   66.30    3.40
   0  -3   2   69.21    3.49
   0   3  -2   67.98    3.41
   0   3  -2   69.04    3.43
   0  -3   2   65.21    3.41
   0   3  -2   69.26    3.59
   0  -3   2   68.59    3.48
   0   3  -2   67.88    3.47
   0  -3   2   67.40    2.96
   0   3  -2   71.01    3.51
   0   3  -2   66.03    3.38
   0  -3   2   70.38    3.49
   0   3  -2   67.46    3.63
   0  -3   2   67.59    3.41
   0  -3   1  278.33    6.32
   0   3  -1  269.95    6.56
   0  -3   1  275.50    6.32
   0  -3   1  269.78    6.25
   0   3  -1  284.01    6.48
   0   3  -1  266.22    6.03
   0  -3   1  265.02    6.04
   0   3  -1  276.79    6.30
   0   3  -1  275.27    6.47
   0   3  -1  271.95    6.28
   0   3  -1  258.92    6.07
   0  -3   1  265.80    6.33
   0  -3   1  270.90    6.34
   0  -3   1  264.29    6.15
   0   3  -1  267.13    6.18
   0  -3   1  256.78    5.84
   0  -3   1  264.37    6.42
   0   3  -1  292.33    6.18
   0  -3   0  246.59    5.68
   0   3   0  235.16    5.50
   0  -3   0  233.23    5.72
   0   3   0  244.91    5.18
   0   3   0  235.56    5.57
   0  -3   0  255.15    6.00
   0  -3   0  243.43    5.63
   0   3   0  251.46    5.56
   0  -3   0  245.30    5.25
   0  -3   0  240.07    5.27
   0  -3   0  248.83    5.70
   0   3   0  234.26    5.55
   0  -3   0  262.33    5.45
   0   3   0  238.74    5.53
   0   3   0  250.94    5.60
   0  -3   0  241.18    5.63
   0   3   0  255.13    5.06
   0   3   0  250.67    5.99
   0  -3   0  254.36    5.85
   0   3   0  238.79    5.72
   0   3   1  151.96    4.26
   0   3   1  159.47    4.49
   0  -3  -1  163.08    4.75
   0   3   1  157.35    4.50
   0   3   1  160.87    4.51
   0  -3  -1  152.23    4.50
   0  -3  -1  154.62    4.36
   0   3   1  155.59    4.44
   0  -3  -1  152.37    4.39
   0   3   1  156.35    4.34
   0   3   1  156.11    4.42
   0  -3  -1  160.14    4.46
   0  -3  -1  149.90    3.91
   0  -3  -1  157.26    4.37
   0   3   1  156.10    4.62
   0  -3  -1  152.82    4.65
   0  -3  -1  160.58    4.53
   0  -3  -1  157.17    4.44
   0   3   1  163.27    4.32
   0   3   1  156.73    3.40
   0   3   2  150.11    4.42
   0   3   2  132.16    2.53
   0  -3  -2  135.33    4.28
   0   3   2  147.61    4.38
   0  -3  -2  146.04    4.30
   0  -3  -2  145.60    4.58
   0   3   2  137.42    4.11
   0   3   2  122.26    3.69
   0  -3  -2  146.09    4.28
   0   3   2  130.42    4.20
   0   3   2  141.62    4.27
   0  -3  -2  132.01    3.58
   0  -3  -2  150.70    4.42
   0  -3  -2  149.49    4.51
   0  -3  -2  134.67    4.30
   0  -3  -2  126.03    4.29
   0   3   2  149.01    4.49
   0   3   2  142.04    4.28
   0   3   2  144.97    4.32
   0  -3  -2  150.69    4.44
   0  -3  -3    3.84    0.88
   0  -3  -3    0.84    0.69
   0  -3  -3   -0.08    0.59
   0  -3  -3    2.25    0.67
   0  -3  -3    2.74    0.78
   0   3   3    2.26    0.73
   0   3   3    1.49    0.66
   0   3   3    2.48    0.71
   0   3   3    0.12    0.34
   0  -3  -3    2.45    0.73
   0   3   3    0.72    0.60
   0  -3  -3    0.42    0.57
   0   3   3    1.08    0.58
   0   3   3    1.52    0.75
   0  -3  -3    1.82    0.69
   0   3   3    0.78    0.57
   0   3   3    0.02    0.52
   0  -3  -3    0.08    0.52
   0  -3  -4  200.74    5.96
   0  -3  -4  207.95    6.25
   0  -3  -4  203.18    5.75
   0   3   4  202.82    5.72
   0  -3  -4  212.75    5.98
   0   3   4  202.79    5.76
   0  -3  -4  212.62    6.28
   0   3   4  220.89    4.05
   0   3   4  207.26    5.82
   0  -3  -4  214.17    5.94
   0   3   4  211.07    5.87
   0   3   4  208.86    5.88
   0  -3  -4  203.25    4.85
   0  -3  -4  215.32    6.40
   0  -3  -4  214.30    6.06
   0   3   4  214.96    5.93
   0  -3  -4  211.33    5.83
   0   3   4  207.70    5.15
   0   3   4  205.09    5.87
   0   3   4  209.73    5.98
   0   3   5    1.39    0.72
   0  -3  -5    0.96    0.81
   0   3   5    1.15    0.55
   0  -3  -5    1.08    0.76
   0  -3  -5    0.11    0.52
   0   3   5    1.35    0.79
   0   3   5    0.49    0.69
   0   3   5    1.39    0.74
   0  -3  -5    0.72    0.52
   0   3   5    0.54    0.61
   0  -3  -5    0.66    0.59
   0   3   5    0.80    0.63
   0  -3  -5    0.88    0.73
   0  -3  -5    0.66    0.62
   0  -3  -5    1.26    0.76
   0  -3  -5    0.42    0.74
   0   3   5    0.47    0.56
   0  -3  -5    1.00    0.50
   0   3   5    0.39    0.56
   0   3   6 1744.97   20.05
   0  -3  -6 1657.08   19.72
   0  -3  -6 1601.01   21.46
   0  -3  -6 1718.25   21.53
   0  -3  -6 1687.08   20.26
   0  -3  -6 1593.46   16.11
   0  -3  -6 1682.02   19.67
   0   3   6 1630.17   19.30
   0  -3  -6 1592.09   18.42
   0   3   6 1668.08   19.52
   0  -3  -6 1656.59   20.60
   0   3   6 1561.41   18.32
   0   3   6 1640.87   19.25
   0   3   6 1697.54   19.84
   0  -3  -6 1612.61   20.36
   0   3   6 1656.98   19.52
   0   3   6 1682.01   19.57
   0  -3  -6 1619.36   19.50
   0  -3  -7  735.89   14.46
   0  -3  -7  706.49   15.27
   0  -3  -7  724.73   14.10
   0  -3  -7  719.41   14.66
   0   3   7  720.96   13.94
   0  -3  -7  732.46   14.26
   0  -3  -7  710.46   14.03
   0  -3  -7  740.06   14.89
   0  -3  -7  708.27   13.08
   0   3   7  729.27   14.06
   0  -3  -7  711.83   15.20
   0   3   7  686.75   12.82
   0   3   7  726.95   14.03
   0   3   7  714.70   13.92
   0   3   7  704.27   13.74
   0   3   7  683.67   13.68
   0   3   7  731.36   14.14
   0   3   8   16.69    2.38
   0   3   8   14.01    2.19
   0  -3  -8   15.58    2.30
   0  -3  -8   14.87    1.37
   0  -3  -8   12.97    2.29
   0   3   8   15.86    1.43
   0   3   8   15.17    2.19
   0  -3  -8   14.91    2.23
   0   3   8   15.73    2.30
   0  -3  -8   10.60    2.12
   0   3   8   15.65    1.45
   0   3   8   16.58    2.34
   0  -3  -8   13.92    2.36
   0  -3  -8   16.86    2.40
   0  -3  -8   13.46    2.20
   0  -3  -8   12.25    2.13
   0   3   8   17.73    2.41
   0   3   8   14.74    2.24
   0   3   9   81.61    5.50
   0   3   9   84.63    3.30
   0  -3  -9   92.27    3.50
   0  -3  -9   98.51    6.19
   0  -3  -9   86.56    5.70
   0   3   9   87.99    3.34
   0   3   9   85.28    3.24
   0  -3  -9   88.60    3.43
   0   3   9   77.94    5.36
   0  -3  -9   92.99    6.08
   0   3   9   87.64    3.26
   0   3   9   84.61    3.44
   0   3   9   83.30    5.52
   0   3   9   85.08    3.40
   0  -3  -9   86.27    3.14
   0  -3  -9   87.67    5.99
   0   3   9   81.71    5.49
   0  -3  -9   83.34    6.03
   0  -3  -9   95.13    5.95
   0   3   9   79.98    5.40
   0  -3  -9   88.59    5.84
   0  -3  -9   85.93    3.25
   0   3   9   89.14    5.73
   0   3   9   81.47    5.50
   0  -3  -9   81.86    6.02
   0  -3 -10   90.70    3.54
   0  -3 -10   84.57    3.17
   0   3  10   89.36    3.57
   0   3  10   84.81    3.43
   0  -3 -10   80.06    3.33
   0   3  10   84.12    3.33
   0   3  10   83.44    3.18
   0  -3 -10   88.01    3.50
   0   3  10   85.95    3.27
   0  -3 -10   85.68    3.09
   0  -3 -11   56.67    2.39
   0  -3 -11   61.32    2.79
   0   3  11   59.09    2.78
   0  -3 -11   62.70    2.82
   0   3  11   59.77    2.80
   0  -3 -11   63.79    2.85
   0   3  11   59.55    2.68
   0  -3 -11   59.00    2.63
   0   3  11   59.75    2.57
   0  -3 -12   66.88    2.13
   0  -3 -12   68.55    2.49
   0  -3 -12   69.97    2.62
   0   3  12   70.77    2.68
   0   3  12   68.91    2.64
   0   3  12   70.35    2.45
   0  -3 -12   71.66    2.69
   0   3  12   70.68    2.60
   0  -3 -12   70.76    2.66
   0   3  13  113.81    2.36
   0   3  13  127.46    2.78
   0  -3 -13  113.94    2.41
   0  -3 -13  122.48    2.75
   0   3  13  119.44    2.63
   0  -3 -13  123.33    2.81
   0   3  13  122.18    2.74
   0  -3 -13  122.89    2.78
   0  -4  10   57.96    1.93
   0  -4  10   58.87    1.96
   0   4 -10   57.92    1.90
   0   4 -10   53.61    1.72
   0   4 -10   56.70    1.93
   0   4 -10   57.17    1.85
   0  -4   9   17.53    1.35
   0  -4   9   16.09    1.16
   0   4  -9   17.39    1.37
   0   4  -9   17.15    1.38
   0   4  -9   17.69    1.31
   0   4  -9   18.17    1.36
   0   4  -9   15.71    1.22
   0  -4   9   15.80    1.31
   0  -4   8  434.84    6.31
   0   4  -8  430.73    7.24
   0  -4   8  442.32    6.86
   0  -4   8  433.09    7.16
   0   4  -8  434.30    7.27
   0   4  -8  432.83    7.51
   0  -4   8  447.30    7.23
   0   4  -8  443.85    7.39
   0   4  -8  441.52    7.15
   0   4  -7  230.02    5.43
   0  -4   7  231.23    5.32
   0   4  -7  225.95    5.47
   0  -4   7  223.33    4.75
   0  -4   7  235.30    5.49
   0   4  -7  228.28    5.75
   0  -4   7  224.88    5.00
   0   4  -7  226.09    5.58
   0  -4   7  227.50    5.38
   0   4  -7  232.39    5.70
   0   4  -6   10.05    1.16
   0   4  -6   11.06    1.26
   0  -4   6    9.95    1.18
   0  -4   6    9.34    1.16
   0  -4   6   11.30    1.23
   0   4  -6   10.93    1.33
   0   4  -6    9.23    1.24
   0   4  -6    9.79    1.22
   0  -4   6   11.25    1.19
   0  -4   6   10.75    1.16
   0   4  -6    9.40    1.24
   0  -4   5  511.66    7.30
   0   4  -5  512.05    8.29
   0   4  -5  496.38    7.77
   0   4  -5  544.18   13.97
   0   4  -5  511.33   13.41
   0  -4   5  507.73    7.71
   0  -4   5  520.74   13.34
   0   4  -5  506.57   13.29
   0  -4   5  497.33   13.13
   0  -4   5  526.58   13.44
   0  -4   5  507.98    7.67
   0   4  -5  533.74   14.50
   0   4  -5  538.92   14.25
   0  -4   5  503.95    7.61
   0  -4   5  512.03    7.54
   0   4  -5  503.92    7.77
   0   4  -5  542.28   13.78
   0  -4   5  510.01   13.78
   0   4  -5  524.09    8.45
   0  -4   5  513.31   13.53
   0  -4   5  484.17   12.75
   0  -4   5  520.43   13.38
   0  -4   5  486.01   13.30
   0   4  -5  558.31   13.88
   0   4  -5  513.38    7.96
   0  -4   4   45.39    3.83
   0   4  -4   40.94    3.60
   0  -4   4   40.72    3.63
   0  -4   4   42.61    3.62
   0  -4   4   40.88    3.48
   0   4  -4   43.22    3.70
   0   4  -4   42.66    3.70
   0  -4   4   41.29    3.61
   0   4  -4   39.21    3.57
   0  -4   4   43.27    3.63
   0   4  -4   43.35    3.93
   0   4  -4   40.51    3.58
   0   4  -4   39.52    3.50
   0   4  -4   43.35    3.84
   0  -4   4   45.50    3.77
   0  -4   4   42.92    3.82
   0   4  -3  142.12    6.05
   0   4  -3  139.52    6.12
   0  -4   3  137.48    6.03
   0  -4   3  139.36    6.10
   0   4  -3  143.22    6.39
   0  -4   3  141.46    6.23
   0   4  -3  144.85    6.31
   0  -4   3  135.14    5.77
   0  -4   3  138.93    6.07
   0  -4   3  134.82    6.24
   0   4  -3  147.68    6.25
   0   4  -3  149.48    6.69
   0   4  -3  146.54    6.26
   0  -4   3  138.22    6.03
   0   4  -3  142.35    6.20
   0   4  -3  138.95    6.00
   0  -4   3  133.32    6.01
   0   4  -2  243.12    7.91
   0   4  -2  234.55    7.40
   0  -4   2  245.80    7.69
   0   4  -2  236.46    7.37
   0   4  -2  234.63    7.13
   0  -4   2  242.54    7.45
   0  -4   2  233.39    6.30
   0   4  -2  244.08    7.52
   0  -4   2  248.33    7.58
   0  -4   2  242.81    7.50
   0   4  -2  246.50    7.80
   0   4  -2  248.25    7.62
   0  -4   2  236.44    7.39
   0   4  -2  229.17    7.27
   0  -4   2  228.60    7.23
   0  -4   2  243.22    7.59
   0  -4   2  224.56    6.97
   0  -4   2  234.44    7.68
   0   4  -2  230.19    7.14
   0   4  -1   87.76    4.29
   0  -4   1   85.05    4.07
   0  -4   1   91.26    3.81
   0   4  -1   86.05    4.23
   0   4  -1   87.67    4.37
   0   4  -1   83.39    4.15
   0  -4   1   81.00    4.29
   0  -4   1   86.58    3.99
   0   4  -1   88.46    3.98
   0   4  -1   85.81    4.10
   0   4  -1   87.60    4.26
   0  -4   1   84.46    4.21
   0  -4   1   90.90    4.50
   0  -4   1   89.57    4.34
   0   4  -1   84.61    4.22
   0   4  -1   89.01    4.51
   0  -4   1   88.30    4.38
   0  -4   1   86.32    4.26
   0  -4   1   90.48    4.32
   0  -4   0  356.25    8.26
   0   4   0  360.44    8.27
   0   4   0  353.73    8.65
   0   4   0  361.27    8.29
   0  -4   0  367.40    8.51
   0  -4   0  351.40    7.57
   0   4   0  356.13    8.22
   0   4   0  365.73    7.25
   0  -4   0  360.48    8.25
   0  -4   0  357.98    7.68
   0  -4   0  370.13    8.31
   0   4   0  360.20    8.41
   0   4   0  353.24    8.46
   0  -4   0  363.19    7.71
   0  -4   0  359.73    8.85
   0   4   0  349.74    7.97
   0   4   0  361.79    7.93
   0  -4   0  354.89    8.57
   0  -4   0  365.81    8.67
   0  -4  -1   20.69    2.06
   0   4   1   24.00    2.14
   0  -4  -1   20.93    1.84
   0  -4  -1   19.57    1.91
   0  -4  -1   19.01    1.90
   0  -4  -1   20.58    2.10
   0   4   1   23.32    2.11
   0   4   1   20.89    1.95
   0  -4  -1   19.58    1.71
   0   4   1   19.43    1.50
   0   4   1   21.96    2.04
   0  -4  -1   20.50    1.99
   0  -4  -1   21.19    2.06
   0   4   1   20.75    1.98
   0   4   1   19.29    1.82
   0   4   1   20.67    1.92
   0  -4  -1   21.22    2.15
   0   4   1   20.27    2.00
   0   4   1   21.38    2.13
   0  -4  -1   22.94    2.04
   0  -4  -2  139.52    5.36
   0  -4  -2  150.34    5.24
   0  -4  -2  138.86    5.18
   0  -4  -2  147.93    5.22
   0  -4  -2  145.43    4.46
   0   4   2  143.98    5.16
   0  -4  -2  146.80    5.12
   0   4   2  148.25    4.86
   0  -4  -2  155.50    5.64
   0   4   2  139.54    4.92
   0   4   2  145.01    5.21
   0   4   2  145.18    5.28
   0  -4  -2  143.13    5.19
   0   4   2  137.50    5.05
   0   4   2  140.46    5.11
   0  -4  -2  149.09    5.28
   0   4   2  139.85    5.10
   0  -4  -2  150.53    5.16
   0   4   2  141.49    5.09
   0  -4  -3  888.10   13.04
   0  -4  -3  869.52   13.38
   0  -4  -3  884.57   12.82
   0   4   3  872.16   11.69
   0   4   3  868.84   13.13
   0   4   3  838.55   12.70
   0  -4  -3  862.35   13.51
   0  -4  -3  856.89   10.72
   0  -4  -3  863.62   13.50
   0  -4  -3  834.32   13.09
   0  -4  -3  861.21   13.76
   0   4   3  841.36   12.40
   0   4   3  872.00   12.89
   0  -4  -3  865.38   13.08
   0   4   3  905.67   13.34
   0   4   3  846.22   12.99
   0  -4  -3  874.96   12.72
   0   4   3  883.75   13.02
   0   4   3  854.44   12.74
   0  -4  -4  977.29   14.88
   0  -4  -4  997.11   14.97
   0   4   4 1026.64   14.63
   0   4   4  986.59   11.26
   0  -4  -4 1029.89   14.80
   0   4   4 1019.63   14.50
   0   4   4  998.89   14.37
   0  -4  -4  965.03   15.18
   0  -4  -4  998.90   11.94
   0   4   4 1033.24   14.91
   0  -4  -4 1034.74   15.55
   0  -4  -4 1016.07   14.32
   0   4   4  988.89   14.80
   0  -4  -4  998.23   14.43
   0   4   4 1004.27   12.77
   0  -4  -4  998.61   14.32
   0   4   4 1028.92   14.62
   0   4   4 1021.07   14.51
   0  -4  -4 1026.87   15.51
   0   4   4 1018.49   14.50
   0   4   5   61.37    3.27
   0   4   5   60.83    3.82
   0   4   5   61.88    3.90
   0  -4  -5   62.52    4.13
   0  -4  -5   62.42    4.14
   0  -4  -5   60.19    3.78
   0   4   5   59.07    3.76
   0  -4  -5   58.74    4.01
   0   4   5   60.87    3.77
   0   4   5   60.72    3.80
   0   4   5   60.11    3.84
   0  -4  -5   58.03    3.89
   0   4   5   54.59    3.61
   0   4   5   61.97    3.87
   0  -4  -5   58.70    3.73
   0  -4  -5   61.46    3.85
   0  -4  -5   62.00    3.95
   0  -4  -5   59.04    3.79
   0   4   6  101.17    5.21
   0  -4  -6  105.95    5.76
   0  -4  -6  107.60    5.38
   0   4   6  101.19    5.20
   0  -4  -6  104.22    5.32
   0  -4  -6   90.67    5.59
   0   4   6  100.96    5.18
   0   4   6   98.13    5.16
   0  -4  -6  100.54    5.18
   0  -4  -6  103.44    5.43
   0  -4  -6   94.06    5.05
   0   4   6   98.57    5.11
   0   4   6  108.27    5.45
   0  -4  -6   99.75    5.59
   0   4   6  101.68    5.21
   0  -4  -6  101.95    5.54
   0   4   6   99.00    5.20
   0   4   7  129.18    6.29
   0  -4  -7  128.68    6.31
   0  -4  -7  122.35    6.16
   0  -4  -7  123.18    6.70
   0  -4  -7  130.39    6.63
   0   4   7  122.55    6.06
   0  -4  -7  126.59    6.21
   0   4   7  123.64    6.10
   0   4   7  126.12    6.18
   0   4   7  130.92    6.31
   0  -4  -7  111.45    6.31
   0   4   7  116.72    6.00
   0  -4  -7  129.75    6.48
   0   4   7  119.70    5.94
   0  -4  -7  122.34    6.79
   0  -4  -7  126.12    6.06
   0   4   7  123.98    6.15
   0   4   8   77.96    5.18
   0   4   8   80.73    5.25
   0   4   8   85.25    5.42
   0   4   8   81.83    3.25
   0  -4  -8   83.14    3.17
   0  -4  -8   74.82    5.48
   0   4   8   78.08    3.18
   0   4   8   80.69    4.99
   0   4   8   83.97    5.38
   0  -4  -8   74.88    5.15
   0   4   8   78.11    3.23
   0  -4  -8   78.79    5.46
   0  -4  -8   75.38    5.13
   0  -4  -8   77.86    5.67
   0  -4  -8   80.78    5.32
   0   4   8   73.73    5.07
   0  -4  -8   73.92    5.15
   0  -4  -8   79.24    5.77
   0   4   8   72.89    5.06
   0   4   8   80.06    3.21
   0   4   8   80.29    5.28
   0  -4  -8   75.69    2.99
   0   4   8   81.74    3.03
   0  -4  -9  110.57    3.84
   0  -4  -9  112.47    3.81
   0  -4  -9  106.71    3.61
   0  -4  -9  108.36    3.71
   0   4   9  108.32    3.63
   0   4   9  102.93    3.79
   0   4   9  105.93    3.78
   0   4   9  105.26    3.73
   0   4   9  107.08    3.90
   0  -4 -10   23.86    1.75
   0   4  10   23.43    1.88
   0  -4 -10   22.56    1.79
   0   4  10   24.63    1.77
   0   4  10   24.11    1.80
   0  -4 -10   23.09    1.76
   0   4  10   23.69    1.72
   0   4  10   24.08    1.87
   0  -4 -10   22.71    1.66
   0  -4 -11   59.00    2.65
   0   4  11   54.77    2.41
   0  -4 -11   57.62    2.59
   0   4  11   56.66    2.69
   0   4  11   55.03    2.44
   0   4  11   54.73    2.34
   0  -4 -11   59.51    2.68
   0  -4 -11   58.58    2.49
   0   4  11   56.64    2.69
   0  -4 -11   59.07    2.48
   0  -4 -11   55.41    2.32
   0  -4 -12   23.00    1.48
   0  -4 -12   23.86    1.54
   0   4  12   24.70    1.44
   0   4  12   23.32    1.56
   0   4  12   24.61    1.59
   0  -4 -12   21.66    1.28
   0  -4 -12   21.30    1.43
   0  -4 -12   22.91    1.35
   0   4  13  209.04    3.52
   0  -4 -13  205.22    3.36
   0   4  13  202.91    3.48
   0  -4 -13  204.19    3.33
   0  -4 -13  207.28    3.44
   0   5  -9    9.48    0.73
   0   5  -9    9.95    0.80
   0  -5   9   10.44    0.84
   0  -5   9    9.11    0.72
   0   5  -9    9.91    0.71
   0   5  -9    9.95    0.79
   0  -5   9   10.84    0.86
   0   5  -9   11.59    0.94
   0   5  -8  128.99    3.31
   0   5  -8  128.77    3.41
   0   5  -8  130.21    3.64
   0  -5   8  128.79    3.30
   0  -5   8  129.08    3.40
   0  -5   8  132.26    3.07
   0   5  -8  126.25    3.44
   0   5  -8  130.32    3.27
   0  -5   8  133.97    3.47
   0  -5   7   41.38    2.16
   0   5  -7   39.70    2.30
   0  -5   7   41.22    2.16
   0   5  -7   38.04    2.22
   0   5  -7   40.84    2.18
   0  -5   7   39.88    2.13
   0   5  -7   39.83    2.10
   0   5  -7   39.52    2.07
   0  -5   7   40.08    1.92
   0  -5   7   39.26    2.01
   0  -5   6    1.20    0.56
   0   5  -6    2.12    0.76
   0  -5   6    1.37    0.52
   0  -5   6    0.84    0.51
   0   5  -6    0.50    0.48
   0  -5   6    1.58    0.58
   0  -5   6    1.45    0.63
   0   5  -6    1.40    0.64
   0   5  -6    1.74    0.57
   0   5  -6    1.79    0.74
   0   5  -6    0.99    0.53
   0  -5   5  253.43    5.52
   0   5  -5  261.10    6.22
   0  -5   5  247.93    5.47
   0   5  -5  249.98    5.60
   0   5  -5  243.76    6.00
   0  -5   5  253.09    5.24
   0  -5   5  249.11    5.69
   0   5  -5  253.44    5.62
   0   5  -5  244.21    5.60
   0  -5   5  261.25    5.61
   0   5  -5  246.83    5.78
   0  -5   5  253.90    5.41
   0  -5   4   13.96    1.29
   0   5  -4   14.24    1.48
   0   5  -4   13.68    1.45
   0   5  -4   12.02    2.18
   0   5  -4   17.90    2.67
   0  -5   4   14.04    2.45
   0  -5   4   12.85    2.33
   0   5  -4   13.87    2.24
   0   5  -4   16.58    2.54
   0   5  -4   13.99    1.46
   0  -5   4   14.26    2.49
   0  -5   4   12.95    1.25
   0   5  -4   14.03    2.38
   0  -5   4   11.58    1.20
   0   5  -4   12.70    1.27
   0  -5   4   13.76    2.29
   0  -5   4   13.57    1.35
   0   5  -4   13.80    1.33
   0   5  -4   13.79    2.31
   0  -5   4   11.90    2.10
   0   5  -4   14.39    1.34
   0  -5   4   11.68    2.26
   0  -5   4   16.44    2.56
   0   5  -4   14.69    2.54
   0  -5   4   12.53    1.24
   0  -5   4   13.45    1.32
   0   5  -4   11.85    2.30
   0  -5   3  526.65   13.23
   0   5  -3  574.87   13.92
   0   5  -3  520.46   13.25
   0   5  -3  556.03   14.03
   0  -5   3  567.31   13.78
   0  -5   3  551.78    7.83
   0   5  -3  573.28    8.74
   0   5  -3  554.96   13.35
   0   5  -3  567.09   13.82
   0   5  -3  545.82   13.59
   0  -5   3  562.78   13.78
   0  -5   3  584.17   14.01
   0  -5   3  567.88    7.85
   0  -5   3  548.71    7.93
   0  -5   3  592.39   14.13
   0  -5   3  551.46    7.68
   0   5  -3  583.22   14.16
   0   5  -3  551.39    8.45
   0  -5   3  590.06   14.32
   0  -5   3  508.46   12.30
   0   5  -3  540.48    8.32
   0   5  -3  575.13   14.56
   0  -5   3  569.01   14.36
   0   5  -3  587.24   14.18
   0  -5   2    1.51    0.83
   0   5  -2    1.02    0.53
   0  -5   2    0.86    0.54
   0   5  -2    2.30    0.99
   0   5  -2    3.45    1.27
   0  -5   2    1.34    0.80
   0  -5   2    1.92    0.96
   0   5  -2    1.28    0.70
   0   5  -2    1.37    0.76
   0  -5   2    1.70    0.90
   0  -5   2    1.17    0.81
   0  -5   2    2.36    1.00
   0   5  -2    1.25    0.90
   0  -5   2    2.50    1.18
   0  -5   2    3.63    1.16
   0   5  -2    2.67    1.06
   0   5  -2    2.04    1.11
   0  -5   1    6.42    1.30
   0   5  -1    4.96    1.30
   0  -5   1    4.47    1.27
   0  -5   1    2.91    1.10
   0  -5   1    3.65    1.12
   0   5  -1    3.66    1.14
   0   5  -1    6.85    1.29
   0   5  -1    5.88    1.37
   0  -5   1    2.86    1.05
   0   5  -1    3.69    1.13
   0   5  -1    2.85    0.95
   0  -5   1    3.18    1.22
   0   5  -1    3.87    1.20
   0   5  -1    4.25    1.26
   0  -5   1    3.75    1.13
   0  -5   1    5.04    1.34
   0  -5   1    5.78    1.31
   0   5  -1    3.85    1.15
   0  -5   0   45.34    3.23
   0   5   0   48.29    3.62
   0  -5   0   46.16    3.48
   0   5   0   37.22    3.10
   0   5   0   48.08    3.43
   0   5   0   50.33    3.09
   0  -5   0   49.58    3.62
   0  -5   0   48.82    3.86
   0  -5   0   47.75    3.71
   0  -5   0   49.94    3.81
   0   5   0   50.42    3.67
   0   5   0   46.63    3.72
   0   5   0   49.23    3.70
   0  -5   0   47.51    3.59
   0   5   0   53.44    3.83
   0  -5   0   47.95    3.55
   0  -5   0   46.20    3.25
   0   5   0   50.04    3.65
   0   5   1    0.28    0.59
   0   5   1    0.93    0.79
   0  -5  -1    0.39    0.38
   0   5   1   -0.85    0.84
   0  -5  -1    0.83    0.62
   0  -5  -1   -0.23    0.81
   0   5   1   -1.97    0.96
   0   5   1    0.53    0.69
   0  -5  -1   -0.28    0.46
   0  -5  -1   -1.80    0.93
   0   5   1    0.24    0.64
   0  -5  -1   -0.32    0.85
   0  -5  -1   -0.73    0.96
   0  -5  -1    0.30    0.63
   0  -5  -1    0.05    0.63
   0   5   1    0.28    0.56
   0  -5  -1   -1.29    0.82
   0   5   1    0.35    0.74
   0  -5  -2 1857.99   21.49
   0   5   2 1901.76   21.84
   0  -5  -2 1798.66   21.14
   0   5   2 1784.15   20.44
   0  -5  -2 1832.06   19.52
   0  -5  -2 1830.13   21.58
   0   5   2 1862.91   21.55
   0   5   2 1852.54   21.60
   0  -5  -2 1841.08   22.60
   0   5   2 1864.49   21.65
   0  -5  -2 1806.30   22.40
   0  -5  -2 1868.42   22.06
   0  -5  -2 1740.47   17.77
   0  -5  -2 1882.41   21.26
   0   5   2 1845.80   21.18
   0   5   2 1891.18   21.66
   0  -5  -2 1896.70   21.57
   0   5   2 1881.18   22.11
   0   5   2 1729.82   19.54
   0  -5  -3  478.37   10.90
   0  -5  -3  480.43   10.96
   0   5   3  474.90   11.02
   0   5   3  489.93   11.22
   0  -5  -3  477.43   11.28
   0  -5  -3  480.53   11.63
   0   5   3  497.08   11.44
   0   5   3  466.85   10.95
   0   5   3  471.77   11.02
   0   5   3  480.80   11.35
   0  -5  -3  494.32   11.45
   0   5   3  484.56   10.16
   0   5   3  491.35   11.34
   0  -5  -3  491.90   11.24
   0   5   3  479.25   10.78
   0  -5  -3  469.46   11.77
   0  -5  -3  475.78   11.68
   0   5   4    9.04    1.65
   0  -5  -4    9.73    1.84
   0  -5  -4   11.47    1.85
   0  -5  -4    9.06    1.83
   0  -5  -4    8.27    1.74
   0  -5  -4   11.66    1.90
   0   5   4    8.83    1.58
   0   5   4   12.79    1.86
   0   5   4    7.42    1.35
   0   5   4   11.03    1.80
   0  -5  -4   10.24    1.75
   0   5   4   11.11    1.85
   0   5   4    8.70    1.58
   0  -5  -4   11.23    1.92
   0  -5  -4   11.68    1.86
   0   5   4   10.32    1.71
   0  -5  -4    6.73    1.50
   0   5   4    7.70    1.58
   0   5   5  253.01    8.43
   0   5   5  265.74    8.72
   0   5   5  275.38    8.99
   0  -5  -5  251.56    8.94
   0   5   5  240.43    8.58
   0   5   5  266.92    8.73
   0  -5  -5  252.59    9.11
   0  -5  -5  263.11    9.25
   0   5   5  267.67    8.76
   0  -5  -5  266.45    8.73
   0  -5  -5  268.85    9.33
   0  -5  -5  264.70    8.81
   0  -5  -5  274.85    8.82
   0  -5  -5  265.34    9.05
   0   5   5  271.16    8.82
   0  -5  -5  258.18    8.59
   0   5   5  265.41    8.67
   0  -5  -6  607.93   14.29
   0   5   6  586.00   13.49
   0  -5  -6  563.27   14.32
   0  -5  -6  594.14   14.67
   0   5   6  602.52   13.73
   0  -5  -6  575.49   13.57
   0  -5  -6  589.64   13.60
   0  -5  -6  581.98   13.91
   0  -5  -6  608.52   15.40
   0  -5  -6  614.12   14.66
   0   5   6  561.87   13.58
   0   5   6  591.55   13.72
   0   5   6  565.20   13.30
   0   5   6  608.17   13.70
   0   5   6  612.91   13.89
   0  -5  -6  589.22   13.54
   0   5   6  576.48   13.35
   0  -5  -7  302.47   10.45
   0  -5  -7  303.68   10.31
   0  -5  -7  319.88    6.18
   0  -5  -7  307.65   11.09
   0  -5  -7  306.13   11.18
   0   5   7  309.14    6.42
   0   5   7  300.34   10.13
   0   5   7  304.29    6.10
   0   5   7  308.64    6.42
   0   5   7  318.49   10.48
   0  -5  -7  296.08   10.18
   0  -5  -7  297.05    5.60
   0   5   7  309.93   10.35
   0   5   7  302.89   10.17
   0  -5  -7  308.13   10.30
   0   5   7  314.06   10.32
   0  -5  -7  310.35    5.74
   0   5   7  317.41    6.13
   0  -5  -7  331.86    6.25
   0   5   7  311.91   10.33
   0   5   7  307.77   10.17
   0  -5  -7  304.86   10.29
   0  -5  -7  324.18   11.15
   0   5   7  320.27   10.50
   0  -5  -7  299.61   11.31
   0   5   7  300.85    6.22
   0  -5  -8  556.34    7.64
   0   5   8  573.12    8.68
   0   5   8  565.86    8.78
   0   5   8  550.65    8.75
   0   5   8  585.53    8.97
   0   5   8  549.10    8.07
   0  -5  -8  560.46    8.36
   0  -5  -8  587.80    8.53
   0   5   9   30.27    2.07
   0  -5  -9   32.93    2.09
   0   5   9   30.56    2.10
   0  -5  -9   30.64    2.06
   0   5   9   32.41    2.18
   0  -5  -9   31.01    1.97
   0  -5  -9   29.81    1.98
   0   5   9   31.49    2.12
   0   5  10  153.55    4.52
   0  -5 -10  149.22    4.30
   0  -5 -10  152.89    4.26
   0   5  10  146.62    4.38
   0   5  10  154.90    4.43
   0   5  10  151.84    4.35
   0  -5 -10  150.15    4.14
   0  -5 -10  147.24    4.11
   0   5  11  197.10    4.38
   0  -5 -11  194.34    4.45
   0  -5 -11  192.04    3.96
   0   5  11  182.19    3.91
   0   5  11  195.99    4.47
   0  -5 -11  200.75    4.45
   0  -5 -11  195.25    4.36
   0   5  11  195.39    4.68
   0  -5 -11  195.80    4.55
   0  -5 -11  190.11    4.20
   0   5  11  200.88    4.80
   0  -5 -12    2.42    0.53
   0   5  12    2.86    0.64
   0   5  12    2.86    0.63
   0  -5 -12    2.64    0.58
   0  -5 -12    2.25    0.54
   0  -5 -12    3.51    0.54
   0  -5 -12    2.99    0.66
   0   5  13    2.87    0.50
   0  -5 -13    2.32    0.39
   0   5  13    2.71    0.47
   0  -5 -13    2.61    0.45
   0   6  -8   19.89    1.12
   0  -6   8   17.87    0.89
   0   6  -8   19.33    0.88
   0  -6   8   16.96    0.83
   0  -6   8   19.75    1.04
   0  -6   8   19.67    0.97
   0   6  -8   18.37    1.02
   0   6  -7  281.33    4.26
   0  -6   7  294.82    4.87
   0   6  -7  282.24    4.48
   0   6  -7  279.74    4.30
   0   6  -7  290.50    5.10
   0   6  -7  292.94    5.18
   0  -6   7  291.52    4.20
   0  -6   7  288.32    4.53
   0  -6   7  285.23    4.56
   0  -6   7  292.87    4.59
   0   6  -6  130.08    3.40
   0   6  -6  133.82    3.55
   0  -6   6  132.48    3.62
   0  -6   6  130.94    3.49
   0   6  -6  129.56    3.54
   0  -6   6  130.45    3.41
   0   6  -6  130.36    3.47
   0   6  -6  128.16    3.93
   0  -6   6  128.79    3.70
   0   6  -6  134.21    4.01
   0  -6   6  130.12    3.49
   0  -6   5   60.37    2.56
   0   6  -5   53.29    2.75
   0   6  -5   57.50    2.47
   0  -6   5   56.47    2.43
   0  -6   5   53.62    2.44
   0  -6   5   52.31    2.48
   0   6  -5   54.55    2.82
   0   6  -5   54.12    2.46
   0   6  -5   55.76    2.63
   0  -6   5   56.47    2.64
   0  -6   5   56.51    2.40
   0   6  -5   56.77    2.49
   0   6  -4  171.89    4.99
   0  -6   4  186.48    4.88
   0   6  -4  170.08    4.53
   0  -6   4  177.20    4.66
   0   6  -4  179.41    4.63
   0   6  -4  176.07    4.45
   0  -6   4  181.28    4.51
   0  -6   4  179.80    4.37
   0  -6   4  178.22    4.62
   0   6  -4  171.58    5.06
   0   6  -4  174.25    4.90
   0  -6   4  178.44    4.19
   0  -6   4  176.36    4.40
   0   6  -4  180.67    4.51
   0   6  -3  121.79    4.25
   0  -6   3  118.48    3.78
   0  -6   3  122.73    3.95
   0  -6   3  123.67    3.87
   0   6  -3  119.78    4.12
   0   6  -3  120.98    4.18
   0   6  -3  123.72    3.86
   0  -6   3  120.72    3.63
   0  -6   3  121.41    3.88
   0   6  -3  121.60    4.01
   0  -6   2  162.19    7.85
   0  -6   2  168.50    4.51
   0   6  -2  171.92    8.50
   0  -6   2  170.80    8.56
   0   6  -2  169.87    8.11
   0  -6   2  176.70    8.12
   0  -6   2  167.81    7.87
   0   6  -2  160.00    4.68
   0  -6   2  170.52    8.29
   0  -6   2  165.82    7.54
   0   6  -2  158.23    7.75
   0  -6   2  161.24    4.26
   0   6  -2  156.87    7.57
   0   6  -2  167.21    4.88
   0   6  -2  180.41    8.44
   0  -6   2  168.10    4.50
   0  -6   2  163.10    4.26
   0   6  -2  164.89    4.41
   0   6  -2  170.12    8.04
   0   6  -2  164.12    4.78
   0   6  -2  172.83    4.96
   0  -6   2  166.55    4.45
   0   6  -2  181.12    8.33
   0  -6   2  169.73    4.52
   0   6  -2  177.90    8.22
   0  -6   2  170.64    8.13
   0  -6   1   49.17    4.35
   0   6  -1   48.01    2.53
   0   6  -1   40.80    2.37
   0   6  -1   43.73    3.98
   0   6  -1   43.62    2.43
   0  -6   1   44.31    2.28
   0  -6   1   43.39    2.23
   0   6  -1   46.19    4.15
   0  -6   1   49.11    4.55
   0  -6   1   43.86    2.27
   0   6  -1   44.06    4.04
   0  -6   1   43.93    2.29
   0   6  -1   45.56    2.56
   0  -6   1   40.49    2.17
   0   6  -1   43.42    3.95
   0  -6   1   41.92    4.10
   0  -6   1   52.98    4.41
   0   6  -1   47.49    4.33
   0  -6   1   48.43    4.20
   0  -6   1   47.44    4.14
   0   6  -1   43.54    3.88
   0   6  -1   44.36    4.12
   0   6  -1   43.28    3.94
   0  -6   1   42.82    2.19
   0  -6   1   47.70    4.37
   0   6   0 1050.22   11.36
   0  -6   0 1066.20   10.39
   0   6   0 1036.40   11.74
   0   6   0 1071.88   11.93
   0  -6   0 1089.90   10.99
   0  -6   0 1082.78   19.78
   0  -6   0 1101.24   11.09
   0   6   0 1087.38   11.66
   0  -6   0 1079.39   10.84
   0  -6   0 1085.87   20.27
   0  -6   0 1129.27   20.75
   0   6   0 1126.76   19.80
   0  -6   0 1159.60   19.66
   0  -6   0 1136.72   19.71
   0   6   0 1157.47   20.53
   0   6   0 1071.27   18.60
   0   6   0 1137.88   19.75
   0  -6   0 1020.99   10.78
   0  -6   0 1146.43   20.01
   0  -6   0 1123.96   19.38
   0   6   0 1161.94   19.99
   0   6   0 1070.19   18.61
   0   6   0 1147.62   19.79
   0   6   0 1167.75   20.03
   0  -6  -1   31.75    3.37
   0   6   1   33.21    3.33
   0  -6  -1   36.54    3.49
   0  -6  -1   29.07    3.38
   0  -6  -1   34.48    3.36
   0  -6  -1   28.48    3.33
   0   6   1   31.19    3.25
   0  -6  -1   33.42    3.35
   0   6   1   30.64    3.21
   0   6   1   27.75    3.02
   0  -6  -1   33.01    3.40
   0   6   1   30.98    3.22
   0   6   1   29.02    3.02
   0   6   1   36.63    3.65
   0   6   1   31.59    3.30
   0  -6  -2  490.79   13.33
   0  -6  -2  477.99   12.55
   0   6   2  505.48   12.80
   0  -6  -2  477.99   12.75
   0   6   2  433.85   11.24
   0  -6  -2  477.03   12.24
   0  -6  -2  473.27   13.21
   0  -6  -2  505.74   12.69
   0   6   2  504.85   13.14
   0  -6  -2  479.88   12.34
   0   6   2  479.85   12.53
   0   6   2  488.13   12.68
   0   6   2  497.84   12.75
   0   6   2  479.12   12.46
   0   6   2  453.17   11.81
   0  -6  -2  492.66   12.61
   0  -6  -3  552.90   14.32
   0   6   3  574.89   13.70
   0   6   3  565.72   13.60
   0  -6  -3  559.82   13.42
   0  -6  -3  573.04   13.71
   0   6   3  594.96   13.95
   0   6   3  584.60   14.01
   0  -6  -3  608.84   14.81
   0   6   3  504.29   11.85
   0   6   3  529.94   12.92
   0  -6  -3  525.64   13.31
   0  -6  -3  580.80   14.74
   0   6   3  576.30   13.69
   0  -6  -3  567.02   13.46
   0   6   3  569.15   13.90
   0  -6  -3  581.41   14.03
   0   6   4  215.61    8.40
   0  -6  -4  217.60    8.89
   0   6   4  228.78    8.80
   0   6   4  216.46    8.73
   0   6   4  224.68    5.37
   0   6   4  219.59    8.59
   0   6   4  221.84    5.34
   0  -6  -4  224.55    9.08
   0  -6  -4  223.68    8.62
   0  -6  -4  229.28    9.28
   0  -6  -4  224.78    8.63
   0   6   4  216.64    8.68
   0  -6  -4  215.78    8.66
   0   6   4  215.51    8.55
   0  -6  -4  217.35    9.20
   0   6   4  225.96    8.69
   0  -6  -4  215.14    8.55
   0  -6  -4  221.30    4.96
   0  -6  -4  219.05    4.90
   0   6   4  215.13    5.23
   0   6   4  229.68    8.78
   0   6   5  519.85   13.83
   0   6   5  519.44    8.34
   0  -6  -5  552.23   14.03
   0  -6  -5  520.05    7.67
   0   6   5  543.61   13.72
   0   6   5  534.62    8.28
   0   6   5  506.54    8.09
   0   6   5  488.41   12.89
   0   6   5  568.24   14.05
   0  -6  -5  514.96   13.31
   0   6   5  535.52   13.60
   0  -6  -5  519.53   14.15
   0  -6  -5  540.76   13.76
   0  -6  -5  538.63   14.22
   0  -6  -5  539.74   14.59
   0   6   5  515.01    8.27
   0  -6  -5  516.75   14.07
   0   6   5  558.83   13.93
   0   6   5  528.96   13.76
   0   6   5  558.39   13.93
   0  -6  -5  525.44    7.69
   0  -6  -5  522.59   13.41
   0   6   6   12.39    1.28
   0   6   6   11.10    2.07
   0  -6  -6   13.74    2.38
   0  -6  -6   12.34    2.39
   0   6   6   14.49    2.36
   0  -6  -6   15.25    1.37
   0   6   6   13.95    2.26
   0   6   6   14.26    2.28
   0  -6  -6   13.81    1.34
   0   6   6   12.05    2.16
   0   6   6    8.27    1.83
   0  -6  -6   14.68    1.40
   0  -6  -6   16.70    2.52
   0  -6  -6   11.93    1.25
   0  -6  -6   14.69    2.52
   0   6   6   13.23    1.37
   0  -6  -6   13.36    2.39
   0   6   6   14.02    1.47
   0  -6  -6   14.91    2.42
   0  -6  -6    7.81    1.81
   0  -6  -6   12.91    2.46
   0   6   6   14.06    1.37
   0   6   6   12.77    2.27
   0   6   6   14.77    1.48
   0   6   7    6.12    0.97
   0   6   7    8.29    1.18
   0  -6  -7    5.78    0.94
   0   6   7    6.30    1.01
   0   6   7    5.04    0.98
   0  -6  -7    5.63    0.94
   0   6   7    6.45    0.97
   0  -6  -7    6.58    0.96
   0  -6  -7    5.69    0.90
   0   6   7    4.58    0.81
   0   6   8  493.32    7.71
   0   6   8  482.01    8.31
   0   6   8  495.64    8.41
   0  -6  -8  493.14    7.92
   0  -6  -8  490.62    7.33
   0  -6  -8  503.37    7.90
   0   6   8  482.96    7.74
   0  -6  -8  498.29    7.29
   0   6   8  495.00    8.10
   0   6   9  179.90    4.69
   0  -6  -9  195.04    4.85
   0   6   9  189.91    4.97
   0   6   9  197.07    5.13
   0   6   9  195.47    5.15
   0  -6  -9  202.12    4.51
   0  -6  -9  192.97    4.83
   0  -6  -9  189.31    4.74
   0  -6  -9  189.12    4.26
   0  -6 -10   10.86    1.04
   0  -6 -10   11.65    1.18
   0   6  10   12.05    1.21
   0   6  10   11.19    1.24
   0   6  10   10.51    1.17
   0   6  10    9.64    1.14
   0  -6 -10    9.85    1.10
   0  -6 -10   10.21    1.13
   0   6  11  197.21    4.22
   0   6  11  192.51    4.26
   0  -6 -11  194.39    3.65
   0   6  11  201.66    4.21
   0   6  11  179.15    3.63
   0   6  11  204.53    4.25
   0  -6 -11  204.96    4.07
   0  -6 -11  177.88    3.86
   0  -6 -11  196.72    4.10
   0  -6 -11  201.43    4.14
   0  -6 -12    3.26    0.53
   0  -6 -12    2.73    0.49
   0   6  12    2.57    0.53
   0  -6 -12    1.87    0.38
   0   6  12    2.76    0.41
   0   6  12    2.99    0.58
   0  -6 -12    2.79    0.54
   0  -6 -12    2.00    0.39
   0  -7   7   17.04    0.84
   0   7  -7   16.57    0.87
   0  -7   6   44.34    1.74
   0  -7   6   41.72    1.64
   0   7  -6   42.79    1.81
   0  -7   6   42.39    1.53
   0   7  -6   40.74    1.79
   0   7  -5    9.93    0.99
   0   7  -5    9.38    1.06
   0   7  -5   10.52    1.13
   0  -7   5    9.62    0.87
   0  -7   5   10.52    0.99
   0  -7   5   10.26    1.03
   0  -7   5   11.22    1.09
   0  -7   4   96.70    3.23
   0  -7   4  101.09    3.19
   0   7  -4   99.44    3.32
   0  -7   4  100.52    2.78
   0   7  -4   96.01    3.46
   0   7  -4   98.98    3.46
   0  -7   4  102.23    3.26
   0  -7   4   99.37    3.08
   0  -7   3    5.96    0.94
   0   7  -3    6.63    1.03
   0   7  -3    4.96    0.95
   0  -7   3    5.78    0.88
   0   7  -3    5.62    0.99
   0   7  -3    6.29    0.94
   0  -7   3    5.52    0.91
   0  -7   3    3.81    0.79
   0  -7   3    4.47    0.75
   0   7  -2  494.86    8.11
   0  -7   2  515.24    7.77
   0   7  -2  514.78    8.36
   0  -7   2  521.34    7.95
   0  -7   2  513.31    7.89
   0  -7   2  514.19    7.55
   0  -7   2  527.75    7.90
   0   7  -2  499.55    8.45
   0   7  -2  503.30    8.39
   0  -7   1 1112.12   11.33
   0   7  -1 1071.09   12.32
   0  -7   1 1091.33   10.64
   0  -7   1 1072.32   11.26
   0  -7   1 1094.29   11.70
   0  -7   1 1105.48   11.74
   0   7  -1 1137.90   12.41
   0   7  -1 1065.10   12.47
   0  -7   1 1092.45   11.30
   0   7  -1 1014.87   12.08
   0  -7   0   10.51    1.15
   0   7   0   11.38    1.32
   0   7   0    8.86    1.17
   0  -7   0    9.40    1.16
   0   7   0    9.79    1.27
   0   7   0    8.29    1.20
   0  -7   0   10.52    1.21
   0   7   0    8.92    1.11
   0  -7   0    9.21    1.05
   0  -7   0    9.84    1.15
   0  -7  -1  473.99    7.63
   0   7   1  452.06    7.66
   0   7   1  453.49    8.17
   0   7   1  473.97    7.92
   0   7   1  464.64    7.79
   0   7   1  464.58    8.23
   0  -7  -1  474.52    7.56
   0  -7  -1  466.76    7.36
   0  -7  -1  465.68    7.61
   0  -7  -1  451.42    6.96
   0  -7  -2  224.01    4.99
   0   7   2  219.85    5.19
   0   7   2  221.78    5.30
   0   7   2  227.59    5.73
   0   7   2  216.07    5.37
   0  -7  -2  226.60    5.18
   0   7   2  224.60    5.35
   0  -7  -2  225.63    5.20
   0  -7  -2  224.98    5.17
   0   7   2  227.07    5.75
   0  -7  -2  227.45    5.24
   0   7   3  576.69    9.12
   0   7   3  573.46    8.87
   0   7   3  577.44    8.44
   0   7   3  561.35    8.58
   0  -7  -3  579.26    8.24
   0  -7  -3  585.42    8.22
   0  -7  -3  587.77    8.25
   0  -7  -3  583.72    8.21
   0   7   3  594.08    9.24
   0  -7  -3  587.09    8.38
   0   7   4    5.00    0.94
   0  -7  -4    4.41    0.79
   0   7   4    4.21    0.89
   0   7   4    4.12    0.85
   0  -7  -4    3.40    0.72
   0  -7  -4    5.22    0.91
   0  -7  -4    5.27    0.91
   0  -7  -4    4.61    0.74
   0   7   4    4.89    0.96
   0  -7  -5   64.92    2.59
   0   7   5   65.56    3.04
   0   7   5   68.29    3.11
   0  -7  -5   65.91    2.84
   0  -7  -5   66.77    2.88
   0  -7  -5   65.02    2.68
   0   7   5   68.55    3.16
   0   7   5   69.68    3.14
   0  -7  -5   62.76    2.77
   0  -7  -6  413.80    6.81
   0   7   6  402.34    7.37
   0   7   6  406.69    7.68
   0  -7  -6  411.60    7.05
   0  -7  -6  406.16    7.07
   0   7   6  408.86    7.60
   0   7   6  395.97    6.78
   0  -7  -6  411.74    7.07
   0   7   6  409.94    7.39
   0   7   7  757.62    9.76
   0   7   7  765.82   10.41
   0   7   7  737.02   10.20
   0  -7  -7  744.32    9.22
   0   7   7  742.80    9.35
   0  -7  -7  762.23    9.38
   0  -7  -7  745.12    9.26
   0   7   7  728.31    9.49
   0  -7  -7  723.63    9.49
   0  -7  -8   54.70    2.51
   0   7   8   55.45    2.77
   0  -7  -8   55.40    2.40
   0  -7  -8   55.31    2.58
   0   7   8   54.57    2.54
   0  -7  -8   52.80    2.36
   0   7   8   52.94    2.39
   0   7   8   56.43    2.54
   0   7   8   54.84    2.74
   0  -7  -8   54.43    2.44
   0  -7  -9    1.22    0.50
   0   7   9    0.39    0.40
   0   7   9    0.45    0.52
   0  -7  -9    0.26    0.37
   0   7   9    0.83    0.47
   0   7   9    0.87    0.59
   0  -7  -9    1.36    0.59
   0  -7  -9    0.00    0.49
   0   7  10  153.09    3.82
   0   7  10  148.46    3.80
   0   7  10  136.62    3.27
   0  -7 -10  147.91    3.55
   0  -7 -10  150.98    3.61
   0   7  10  149.95    3.61
   0  -7 -10  147.54    3.36
   0  -7 -10  145.00    2.97
   0  -7 -11   17.45    1.10
   0   7  11   16.55    1.02
   0   7  11   18.76    1.15
   0  -7 -11   17.42    1.08
   0   7  11   17.54    1.12
   0  -7 -11   16.79    1.01
   0  -7 -11   15.80    0.96
   0   7  11   17.75    1.11
   0   8  -5    0.52    0.37
   0  -8   5    0.25    0.29
   0  -8   5   -0.19    0.30
   0  -8   5    0.13    0.27
   0   8  -5    0.44    0.30
   0  -8   4   75.97    2.20
   0  -8   4   78.62    2.23
   0  -8   4   77.98    2.21
   0  -8   4   76.37    2.05
   0   8  -4   75.82    2.39
   0   8  -4   71.53    2.08
   0   8  -4   77.02    2.34
   0  -8   3    6.75    0.83
   0  -8   3    7.16    0.86
   0  -8   3    6.79    0.82
   0  -8   3    7.19    0.83
   0   8  -3    6.03    0.84
   0   8  -3    7.68    0.91
   0  -8   3    6.37    0.70
   0   8  -3    6.89    0.89
   0   8  -3    7.79    0.81
   0  -8   2   73.96    2.69
   0  -8   2   70.52    2.53
   0   8  -2   71.90    2.82
   0  -8   2   69.81    2.51
   0   8  -2   71.63    2.74
   0   8  -2   70.35    2.79
   0  -8   2   71.47    2.64
   0  -8   2   73.12    2.51
   0   8  -2   70.05    2.65
   0  -8   1    1.59    0.46
   0   8  -1    0.86    0.51
   0   8  -1    0.94    0.55
   0  -8   1    1.33    0.62
   0  -8   1    1.25    0.53
   0  -8   1    0.66    0.49
   0   8  -1    2.46    0.68
   0  -8   1    0.55    0.50
   0  -8   1    0.95    0.41
   0   8  -1    1.51    0.60
   0   8   0   17.13    1.48
   0  -8   0   14.22    1.22
   0  -8   0   15.30    1.39
   0  -8   0   15.66    1.37
   0  -8   0   21.44    1.61
   0  -8   0   18.77    1.36
   0   8   0   14.54    1.37
   0  -8   0   14.12    1.18
   0   8   0   15.04    1.53
   0   8   0   12.62    1.37
   0  -8  -1    4.34    0.69
   0   8   1    3.47    0.76
   0   8   1    4.00    0.76
   0  -8  -1    3.76    0.77
   0   8   1    3.94    0.79
   0   8   1    4.64    0.89
   0  -8  -1    3.91    0.79
   0   8   1    4.09    0.92
   0  -8  -1    4.25    0.77
   0  -8  -1    3.62    0.80
   0   8   2  164.57    4.83
   0  -8  -2  165.87    4.35
   0   8   2  162.76    4.38
   0  -8  -2  163.53    4.32
   0   8   2  161.88    4.44
   0   8   2  167.22    4.38
   0  -8  -2  166.88    4.43
   0   8   2  162.59    4.80
   0  -8  -2  157.67    4.03
   0  -8  -2  168.82    4.40
   0  -8  -3   94.06    3.35
   0   8   3  100.38    3.35
   0   8   3   94.14    3.66
   0  -8  -3   96.50    3.04
   0   8   3   96.86    3.71
   0  -8  -3   96.73    3.30
   0   8   3   94.65    3.49
   0   8   3   94.95    3.30
   0  -8  -3   93.24    3.20
   0  -8  -3   94.02    3.23
   0  -8  -3   95.02    3.28
   0   8   4  514.21    8.41
   0  -8  -4  528.64    7.39
   0  -8  -4  538.31    7.71
   0   8   4  515.87    7.89
   0  -8  -4  510.06    7.22
   0   8   4  526.76    8.45
   0  -8  -4  533.02    7.48
   0  -8  -4  531.12    7.92
   0   8   4  502.97    8.11
   0  -8  -4  523.22    7.46
   0   8   5   63.98    2.91
   0   8   5   63.21    2.85
   0  -8  -5   63.77    2.61
   0   8   5   64.46    2.93
   0  -8  -5   62.42    2.47
   0   8   5   65.48    2.94
   0  -8  -5   69.84    2.85
   0  -8  -5   65.35    2.71
   0  -8  -6  137.77    3.48
   0  -8  -6  139.67    3.94
   0   8   6  135.61    4.16
   0  -8  -6  142.89    3.94
   0  -8  -6  140.27    3.85
   0   8   6  133.80    4.07
   0   8   6  140.33    4.11
   0   8   6  138.27    4.08
   0   8   7  106.44    3.37
   0  -8  -7  102.64    3.18
   0   8   7  104.90    3.56
   0   8   7  102.41    3.26
   0  -8  -7  106.87    3.28
   0   8   7  106.24    3.56
   0  -8  -7  101.58    3.20
   0  -8  -7  102.56    2.99
   0   8   8  105.32    2.93
   0  -8  -8  104.15    2.91
   0   8   8  103.32    3.01
   0   8   8  104.45    3.36
   0  -8  -8  106.72    3.03
   0  -8  -8  101.85    3.07
   0   8   8  106.89    3.37
   0  -8  -8  106.11    2.92
   0  -8  -9    5.58    0.61
   0  -8  -9    5.51    0.76
   0   8   9    5.95    0.82
   0   8   9    5.11    0.79
   0  -8  -9    6.63    0.76
   0  -8  -9    5.43    0.66
   0   8   9    5.60    0.65
   0   8  10   21.47    1.23
   0  -8 -10   20.97    1.08
   0   8  10   21.87    1.22
   0  -8 -10   21.49    1.16
   0   8  10   18.41    0.89
   0  -8 -10   19.75    0.87
   0   9  -2  171.48    2.99
   0   9  -2  165.55    2.80
   0   9  -2  160.67    2.54
   0  -9   2  176.90    2.97
   0  -9   2  170.67    2.58
   0  -9   2  185.35    3.08
   0   9  -2  170.68    2.98
   0  -9   2  171.42    2.61
   0  -9   1    7.55    0.78
   0  -9   1    7.22    0.78
   0   9  -1    6.76    0.70
   0   9  -1    7.83    0.82
   0  -9   1    7.24    0.63
   0   9  -1    6.51    0.71
   0   9  -1    7.25    0.65
   0  -9   1    7.95    0.76
   0   9  -1    8.17    0.87
   0  -9   0   54.96    2.08
   0   9   0   55.60    2.24
   0   9   0   55.91    2.00
   0   9   0   58.87    2.25
   0  -9   0   59.09    2.12
   0   9   0   55.43    2.02
   0  -9   0   58.08    2.08
   0  -9   0   53.66    1.73
   0   9   1   -0.35    0.38
   0   9   1    0.36    0.47
   0  -9  -1   -0.10    0.45
   0  -9  -1   -0.11    0.36
   0   9   1   -0.03    0.48
   0  -9  -1    0.44    0.42
   0  -9  -1    0.49    0.40
   0   9   1    0.00    0.31
   0   9   2    2.36    0.52
   0   9   2    1.54    0.45
   0   9   2    1.37    0.59
   0  -9  -2    1.67    0.51
   0   9   2    1.84    0.50
   0   9   2    1.65    0.59
   0  -9  -2    1.33    0.50
   0  -9  -2    2.04    0.52
   0  -9  -2    2.28    0.55
   0  -9  -2    1.76    0.51
   0  -9  -3  218.39    4.34
   0  -9  -3  225.98    4.16
   0   9   3  209.67    4.20
   0  -9  -3  217.77    4.19
   0   9   3  222.81    4.80
   0   9   3  216.21    4.79
   0  -9  -3  218.12    4.24
   0  -9  -3  209.49    3.96
   0   9   4   54.19    2.04
   0   9   4   57.39    2.29
   0  -9  -4   52.96    2.08
   0  -9  -4   57.41    2.28
   0   9   4   57.01    2.45
   0  -9  -4   58.44    2.13
   0  -9  -4   54.16    2.00
   0   9   4   58.55    2.45
   0  -9  -4   56.57    1.99
   0   9   5   16.99    1.29
   0  -9  -5   20.03    1.18
   0   9   5   17.98    1.26
   0   9   5   17.97    1.36
   0  -9  -5   18.29    1.33
   0  -9  -5   17.53    1.12
   0   9   5   19.02    1.39
   0  -9  -5   18.29    1.26
   0   9   6  356.10    5.41
   0  -9  -6  355.34    5.17
   0   9   6  354.89    5.44
   0  -9  -6  360.21    5.28
   0   9   6  339.10    5.20
   0  -9  -6  343.21    4.76
   0   9   6  347.11    5.45
   0   9   7    0.63    0.38
   0  -9  -7    0.37    0.35
   0   9   7    0.24    0.41
   0   9   7    0.16    0.47
   0  -9  -7    0.09    0.36
   0  -9  -7    0.40    0.33
   0   9   7    0.08    0.31
   0  -9  -8   16.09    0.97
   0   9   8   17.98    1.13
   0   9   8   18.27    1.11
   0  -9  -8   18.26    0.96
   0  -9  -8   16.66    0.98
   0   9   9    7.28    0.64
   0   9   9    7.37    0.64
   0  -9  -9    7.44    0.59
   0 -10  -2    2.83    0.38
   0  10   2    2.81    0.46
   0  10   2    2.97    0.46
   0 -10  -3  150.90    2.36
   0  10   3  158.18    2.77
   0  10   3  155.11    2.73
   0  10   4    9.01    0.72
   0 -10  -4    8.76    0.65
   0  10   4    8.60    0.68
   0 -10  -5   20.78    0.93
   0  10   5   19.17    0.91
   0  10   5   19.29    0.92
   1  -9  -8   10.18    0.64
  -1   9   8   10.77    0.72
  -1   9   8    8.51    0.66
   1  -9  -7    1.52    0.40
  -1   9   7    2.45    0.50
  -1   9   7    1.95    0.47
   1  -9  -7    2.32    0.44
  -1   9   6   39.23    1.43
   1  -9  -6   41.88    1.61
  -1   9   6   40.13    1.61
  -1   9   6   42.20    1.72
   1  -9  -6   40.02    1.54
  -1   9   6   39.82    1.47
  -1   9   5   96.23    2.51
   1  -9  -5   98.38    2.26
   1  -9  -5  104.61    2.66
  -1   9   5  101.58    2.65
   1  -9  -5   92.24    2.07
  -1   9   5   99.04    2.71
  -1   9   5  101.24    2.56
   1  -9  -5   91.14    2.05
   1  -9  -5  102.56    2.49
  -1   9   4  167.97    3.53
   1  -9  -4  157.24    3.28
   1  -9  -4  161.29    3.09
  -1   9   4  158.53    3.12
  -1   9   4  156.93    3.42
   1  -9  -4  162.61    3.11
  -1   9   4  158.38    3.51
   1  -9  -4  166.70    3.23
   1  -9  -4  157.04    3.02
   1  -9  -3    0.41    0.36
   1  -9  -3    0.85    0.42
  -1   9   3   -0.27    0.44
   1  -9  -3   -0.23    0.34
   1  -9  -3    0.28    0.40
  -1   9   3   -0.30    0.42
   1  -9  -3    0.01    0.36
  -1   9   3    0.98    0.49
   1  -9  -2   42.07    1.72
  -1   9   2   43.26    1.92
   1  -9  -2   43.16    1.71
   1  -9  -2   43.49    1.75
   1  -9  -2   40.33    1.55
  -1   9   2   41.25    1.64
  -1   9   2   43.30    1.87
  -1   9   1    6.64    0.80
  -1   9   1    6.10    0.78
  -1   9   1    5.65    0.60
   1  -9  -1    5.31    0.56
   1  -9  -1    6.54    0.73
   1  -9  -1    6.51    0.73
   1  -9  -1    6.68    0.74
   1  -9   0  194.86    3.26
  -1   9   0  190.85    3.57
  -1   9   0  191.46    3.53
   1  -9   0  192.96    3.36
   1  -9   0  194.03    3.35
  -1   9  -1    8.20    0.71
   1  -9   1    8.10    0.68
   1  -9   1    7.56    0.65
   1  -9   1    7.58    0.60
  -1   9  -1    7.78    0.71
  -1   8  10    0.85    0.30
  -1   8  10    1.01    0.33
   1  -8 -10    0.87    0.32
   1  -8  -9    3.17    0.46
  -1   8   9    3.50    0.50
  -1   8   9    4.01    0.62
   1  -8  -9    3.39    0.47
   1  -8  -9    4.10    0.53
  -1   8   9    4.84    0.66
   1  -8  -9    4.21    0.60
   1  -8  -8    5.76    0.74
  -1   8   8    6.41    0.85
   1  -8  -8    5.39    0.71
  -1   8   8    5.62    0.82
   1  -8  -8    4.95    0.69
  -1   8   8    5.40    0.67
   1  -8  -8    5.53    0.61
  -1   8   7  266.77    5.26
  -1   8   7  267.35    4.52
   1  -8  -7  262.30    4.58
  -1   8   7  277.68    5.33
  -1   8   7  270.43    4.50
  -1   8   7  258.47    4.34
   1  -8  -7  275.74    4.90
   1  -8  -7  267.87    4.83
  -1   8   6   35.19    2.07
  -1   8   6   33.52    1.82
   1  -8  -6   35.44    1.61
   1  -8  -6   34.13    1.88
  -1   8   6   32.31    1.96
   1  -8  -6   36.10    1.90
  -1   8   6   35.07    1.85
   1  -8  -6   33.51    1.70
   1  -8  -5    8.95    0.91
   1  -8  -5    7.30    0.96
  -1   8   5    8.32    1.10
  -1   8   5    7.18    0.99
   1  -8  -5    8.02    1.03
   1  -8  -5    7.60    0.89
   1  -8  -5    7.48    0.86
  -1   8   5    5.71    0.94
   1  -8  -5    6.52    0.79
  -1   8   5    7.45    1.01
   1  -8  -4   27.24    1.68
  -1   8   4   27.58    1.90
  -1   8   4   26.21    1.79
   1  -8  -4   29.98    1.75
   1  -8  -4   25.54    1.63
  -1   8   4   26.59    1.79
   1  -8  -4   27.27    1.68
  -1   8   4   28.28    1.90
   1  -8  -4   28.87    1.82
  -1   8   3   46.23    2.46
   1  -8  -3   49.82    2.30
  -1   8   3   48.76    2.48
   1  -8  -3   48.98    2.30
  -1   8   3   50.26    2.52
   1  -8  -3   45.52    2.11
  -1   8   3   45.37    2.25
   1  -8  -3   51.11    2.35
   1  -8  -3   48.28    2.28
   1  -8  -2    8.15    1.05
  -1   8   2    8.63    1.01
   1  -8  -2    7.93    1.01
  -1   8   2    8.77    1.09
   1  -8  -2    6.67    0.80
   1  -8  -2    6.82    0.93
  -1   8   2    8.56    1.16
  -1   8   2    8.44    1.16
   1  -8  -2    7.62    0.98
   1  -8  -1  112.33    3.46
  -1   8   1  108.15    3.43
  -1   8   1  107.87    3.70
   1  -8  -1  106.07    3.41
  -1   8   1  108.85    3.70
   1  -8  -1  107.96    3.12
   1  -8  -1  107.43    3.37
   1  -8   0   43.28    1.94
   1  -8   0   44.13    1.93
  -1   8   0   40.51    2.23
  -1   8   0   43.04    2.02
   1  -8   0   44.27    2.11
  -1   8   0   45.28    2.11
  -1   8   0   42.54    1.94
   1  -8   0   43.72    2.17
  -1   8   0   43.88    2.35
   1  -8   0   47.46    2.24
   1  -8   0   39.06    1.74
  -1   8  -1  586.74    7.28
   1  -8   1  583.61    6.88
  -1   8  -1  585.20    7.84
   1  -8   1  584.74    7.37
  -1   8  -1  588.36    6.97
   1  -8   1  590.63    7.06
   1  -8   1  595.16    7.50
   1  -8   1  566.67    6.84
  -1   8  -1  588.26    7.99
  -1   8  -2  652.54    7.78
   1  -8   2  630.48    7.05
   1  -8   2  644.95    6.96
  -1   8  -2  654.02    6.95
   1  -8   2  655.87    7.28
   1  -8   2  638.83    6.63
  -1   8  -2  638.00    7.47
  -1   8  -2  650.16    7.29
   1  -8   2  640.14    7.00
   1  -8   3   52.87    1.54
   1  -8   3   57.05    1.92
   1  -8   3   57.41    1.94
  -1   8  -3   58.16    2.02
  -1   8  -3   56.20    1.90
  -1   8  -3   58.26    2.10
  -1   8  -3   55.45    1.85
   1  -8   3   54.89    1.82
   1  -8   3   58.00    1.93
  -1   8  -4   96.79    2.16
   1  -8   4  103.49    2.20
   1  -8   4   99.22    2.04
   1  -8   4  100.04    2.16
  -1   8  -4  100.68    2.24
   1  -7 -11   14.51    0.85
  -1   7  11   10.98    0.71
  -1   7  11   13.41    0.86
  -1   7  11   13.48    0.80
   1  -7 -11   14.38    0.88
  -1   7  11   12.76    0.76
  -1   7  10    6.11    0.75
   1  -7 -10    5.29    0.70
  -1   7  10    5.77    0.77
  -1   7  10    5.09    0.69
   1  -7 -10    6.10    0.77
   1  -7 -10    5.23    0.57
  -1   7  10    6.31    0.77
  -1   7   9  164.40    3.67
   1  -7  -9  166.67    3.75
   1  -7  -9  169.68    3.94
  -1   7   9  166.74    3.97
   1  -7  -9  169.75    3.68
  -1   7   9  174.98    4.24
  -1   7   9  171.39    4.14
   1  -7  -9  166.70    3.59
   1  -7  -8   19.16    1.42
   1  -7  -8   23.40    1.62
   1  -7  -8   17.66    1.34
  -1   7   8   20.87    1.66
   1  -7  -8   20.60    1.48
  -1   7   8   20.58    1.66
  -1   7   8   19.57    1.51
  -1   7   8   21.05    1.44
   1  -7  -7  242.75    5.22
  -1   7   7  247.25    5.75
   1  -7  -7  241.92    4.94
  -1   7   7  242.48    5.31
  -1   7   7  255.43    5.14
  -1   7   7  261.65    5.90
  -1   7   7  256.46    5.18
   1  -7  -7  255.69    5.36
   1  -7  -7  247.02    5.26
  -1   7   6   53.70    2.81
  -1   7   6   53.12    2.78
   1  -7  -6   55.55    2.61
   1  -7  -6   54.76    2.35
  -1   7   6   56.48    2.62
  -1   7   6   56.13    2.62
   1  -7  -6   56.50    2.66
   1  -7  -6   59.14    2.61
  -1   7   6   54.56    2.57
  -1   7   5   83.45    3.29
   1  -7  -5   80.35    2.95
   1  -7  -5   76.86    3.08
   1  -7  -5   81.14    3.21
   1  -7  -5   81.41    3.03
  -1   7   5   77.74    3.36
  -1   7   5   84.85    3.35
   1  -7  -5   80.45    2.97
  -1   7   5   79.31    3.40
   1  -7  -5   79.94    3.00
  -1   7   5   84.26    3.18
  -1   7   4  567.25    8.75
   1  -7  -4  565.84    8.13
  -1   7   4  560.32    8.82
   1  -7  -4  554.56    8.12
  -1   7   4  554.60    8.78
   1  -7  -4  556.05    7.94
   1  -7  -4  553.70    8.04
   1  -7  -4  566.79    8.36
   1  -7  -4  546.22    7.63
  -1   7   4  563.51    9.01
  -1   7   3   -0.09    0.53
  -1   7   3    0.26    0.51
   1  -7  -3   -0.19    0.42
  -1   7   3    0.48    0.55
  -1   7   3    1.01    0.61
   1  -7  -3    0.49    0.50
   1  -7  -3    0.06    0.43
   1  -7  -3    0.30    0.40
   1  -7  -3    0.65    0.47
  -1   7   2    5.37    0.95
  -1   7   2    4.91    0.95
   1  -7  -2    6.19    0.97
   1  -7  -2    5.06    0.82
   1  -7  -2    5.40    0.93
   1  -7  -2    4.22    0.78
   1  -7  -2    7.39    1.05
  -1   7   2    5.76    0.99
  -1   7   2    5.71    1.02
   1  -7  -1  267.29    5.14
   1  -7  -1  281.81    5.61
  -1   7   1  280.01    5.75
  -1   7   1  287.05    6.44
   1  -7  -1  282.93    5.84
  -1   7   1  272.99    5.75
   1  -7  -1  271.17    5.34
  -1   7   1  284.76    5.73
   1  -7  -1  291.10    6.03
   1  -7  -1  291.41    6.04
   1  -7  -1  274.65    5.50
  -1   7   1  272.07    6.15
  -1   7   1  279.02    6.42
  -1   7   0    4.92    0.85
  -1   7   0    3.82    0.91
   1  -7   0    5.61    0.84
  -1   7   0    4.09    0.90
  -1   7   0    4.00    0.87
   1  -7   0    4.14    0.77
   1  -7   0    3.32    0.76
   1  -7   0    4.08    0.81
   1  -7   0    4.92    0.85
  -1   7   0    3.30    0.77
   1  -7   0    4.06    0.82
  -1   7  -1   37.12    2.36
   1  -7   1   36.81    2.15
  -1   7  -1   33.96    2.13
  -1   7  -1   34.89    2.26
   1  -7   1   33.92    2.00
   1  -7   1   37.90    2.17
   1  -7   1   36.57    2.08
   1  -7   1   36.69    2.12
  -1   7  -1   34.36    2.07
  -1   7  -1   35.17    2.10
  -1   7  -2   75.29    3.25
  -1   7  -2   73.79    3.15
  -1   7  -2   78.47    3.06
   1  -7   2   78.56    3.02
   1  -7   2   76.50    2.82
   1  -7   2   76.53    2.94
   1  -7   2   74.83    2.97
   1  -7   2   80.88    3.04
  -1   7  -2   75.33    3.11
  -1   7  -3    6.26    1.01
   1  -7   3    6.94    0.95
   1  -7   3    6.56    0.89
   1  -7   3    7.54    0.99
  -1   7  -3    6.13    0.98
   1  -7   3    7.47    0.86
  -1   7  -3    5.47    0.88
  -1   7  -3    5.93    0.92
   1  -7   3    6.50    0.94
   1  -7   4   70.92    2.57
  -1   7  -4   70.78    2.72
  -1   7  -4   68.65    2.48
   1  -7   4   69.05    2.59
   1  -7   4   68.65    2.34
  -1   7  -4   70.70    2.76
   1  -7   4   69.80    2.47
  -1   7  -4   68.81    2.61
  -1   7  -5   50.29    2.09
  -1   7  -5   50.70    1.99
   1  -7   5   53.02    1.97
   1  -7   5   53.39    2.03
  -1   7  -5   51.91    2.03
   1  -7   5   52.57    1.83
   1  -7   6    0.73    0.37
  -1   7  -6    0.70    0.35
   1  -7   6    0.04    0.31
  -1   7  -6    0.55    0.39
  -1   6  12  147.36    2.64
   1  -6 -12  157.12    2.62
   1  -6 -12  152.32    2.50
  -1   6  12  155.28    2.78
  -1   6  11    6.81    0.83
   1  -6 -11    6.52    0.77
   1  -6 -11    7.77    0.82
  -1   6  11    7.43    0.76
  -1   6  11    6.69    0.72
   1  -6 -11    6.35    0.73
  -1   6  11    7.46    0.88
  -1   6  10    2.44    0.62
   1  -6 -10    2.38    0.67
   1  -6 -10    2.39    0.59
   1  -6 -10    3.87    0.59
  -1   6  10    1.87    0.58
  -1   6  10    2.88    0.70
   1  -6 -10    1.33    0.45
  -1   6  10    2.28    0.70
   1  -6 -10    2.02    0.64
   1  -6  -9   60.91    2.44
   1  -6  -9   59.56    2.65
   1  -6  -9   60.48    2.45
  -1   6   9   61.29    2.80
  -1   6   9   60.53    2.73
  -1   6   9   59.33    2.64
   1  -6  -9   61.39    2.42
   1  -6  -9   61.06    2.63
  -1   6   9   57.81    2.71
  -1   6   8  163.49    4.71
   1  -6  -8  163.49    4.29
  -1   6   8  162.97    4.66
   1  -6  -8  167.97    4.44
   1  -6  -8  163.68    4.52
  -1   6   8  162.07    4.72
  -1   6   8  157.97    4.42
   1  -6  -8  154.97    4.07
   1  -6  -8  166.85    4.29
  -1   6   7   64.15    2.82
   1  -6  -7   63.59    2.78
  -1   6   7   69.89    3.17
   1  -6  -7   64.44    2.88
   1  -6  -7   66.02    2.81
  -1   6   7   67.89    3.17
  -1   6   7   64.57    2.98
   1  -6  -7   68.23    2.88
  -1   6   6  535.12    8.15
  -1   6   6  536.52    8.79
  -1   6   6  539.68    8.14
   1  -6  -6  535.93    8.10
  -1   6   6  529.66    8.72
  -1   6   6  529.08    8.44
   1  -6  -6  533.69    7.77
   1  -6  -6  515.41    7.94
   1  -6  -6  534.54    7.99
  -1   6   6  514.30    7.79
   1  -6  -5  334.21    6.01
  -1   6   5  350.18   11.58
  -1   6   5  343.15    6.98
   1  -6  -5  325.82   11.83
   1  -6  -5  329.77    5.89
  -1   6   5  340.09    6.59
   1  -6  -5  347.66    6.03
   1  -6  -5  341.40    6.14
  -1   6   5  352.05   11.54
  -1   6   5  321.72   10.63
  -1   6   5  335.10    6.53
  -1   6   5  351.09   11.54
  -1   6   5  329.53    6.83
  -1   6   5  364.58   11.74
   1  -6  -5  337.82    6.27
  -1   6   5  357.51   11.84
   1  -6  -5  341.69    6.40
   1  -6  -5  354.25    6.53
  -1   6   5  336.84    6.56
  -1   6   5  348.97   11.50
  -1   6   5  351.83   11.67
   1  -6  -5  336.18   11.61
   1  -6  -4   60.01    4.93
   1  -6  -4   58.21    4.62
  -1   6   4   66.58    2.85
   1  -6  -4   62.97    2.64
  -1   6   4   55.16    4.36
   1  -6  -4   62.70    4.79
   1  -6  -4   60.91    2.72
   1  -6  -4   64.71    5.06
   1  -6  -4   61.63    4.81
  -1   6   4   57.04    2.77
  -1   6   4   59.57    4.74
   1  -6  -4   65.36    2.73
   1  -6  -4   58.60    2.56
  -1   6   4   54.55    4.33
  -1   6   4   58.31    2.76
  -1   6   4   59.31    4.69
   1  -6  -4   59.25    2.62
   1  -6  -4   61.65    5.09
   1  -6  -4   61.20    4.82
  -1   6   4   60.14    4.71
  -1   6   4   58.10    4.68
  -1   6   4   64.32    4.90
   1  -6  -4   60.48    2.65
  -1   6   4   57.70    4.65
  -1   6   4   67.94    5.04
   1  -6  -4   62.55    5.19
  -1   6   4   61.61    2.93
  -1   6   4   60.26    2.93
   1  -6  -3  837.44   17.70
   1  -6  -3  804.84    9.62
  -1   6   3  808.65   10.27
   1  -6  -3  781.67   17.37
  -1   6   3  844.75   17.44
   1  -6  -3  807.71    9.42
  -1   6   3  836.68   17.36
  -1   6   3  798.85   10.33
   1  -6  -3  822.98    9.67
   1  -6  -3  808.00    9.48
   1  -6  -3  803.40   17.09
   1  -6  -3  808.83    9.59
  -1   6   3  845.34   17.44
  -1   6   3  814.01   10.58
  -1   6   3  765.24   15.91
  -1   6   3  812.68   17.44
   1  -6  -3  829.47   17.17
  -1   6   3  856.90   17.66
  -1   6   3  788.31   16.06
  -1   6   3  848.96   17.54
   1  -6  -3  838.93   18.14
  -1   6   3  819.69   10.43
   1  -6  -3  787.11   17.81
   1  -6  -3  846.11   17.28
   1  -6  -3  832.75   18.61
  -1   6   3  780.34   16.42
  -1   6   2  347.44   11.18
  -1   6   2  342.19   11.06
  -1   6   2  320.10   11.02
   1  -6  -2  331.74    6.21
   1  -6  -2  325.53   10.86
  -1   6   2  358.69   11.34
   1  -6  -2  335.14    6.12
   1  -6  -2  347.99   11.40
   1  -6  -2  349.77   11.07
  -1   6   2  335.33   10.95
   1  -6  -2  343.33   10.96
   1  -6  -2  343.73   11.69
  -1   6   2  324.02    6.61
  -1   6   2  327.60    6.69
  -1   6   2  316.57    6.57
   1  -6  -2  329.59   11.66
  -1   6   2  321.91   10.49
   1  -6  -2  320.24   11.53
   1  -6  -2  335.49    6.14
   1  -6  -2  322.33    5.81
   1  -6  -2  329.35    6.16
  -1   6   2  334.85    6.56
  -1   6   2  322.22   10.17
  -1   6   2  342.27   11.25
  -1   6   1  196.25    8.48
   1  -6  -1  176.75    4.22
  -1   6   1  197.88    8.50
   1  -6  -1  185.91    8.45
   1  -6  -1  182.85    8.09
  -1   6   1  179.14    4.95
  -1   6   1  180.44    5.02
  -1   6   1  182.95    4.95
   1  -6  -1  178.92    8.16
   1  -6  -1  175.65    4.26
  -1   6   1  176.93    4.71
  -1   6   1  186.57    8.28
   1  -6  -1  187.57    4.70
   1  -6  -1  178.16    4.41
   1  -6  -1  180.24    8.67
  -1   6   1  174.58    7.82
  -1   6   1  166.81    4.47
   1  -6  -1  183.14    8.18
   1  -6  -1  186.66    4.64
  -1   6   1  179.87    8.13
   1  -6  -1  187.56    4.50
   1  -6  -1  183.06    4.67
   1  -6  -1  168.71    7.79
  -1   6   1  179.54    7.59
   1  -6  -1  169.62    4.60
   1  -6  -1  183.65    8.67
  -1   6   1  189.15    8.50
  -1   6   1  190.83    8.37
   1  -6   0  525.99    8.13
   1  -6   0  571.43   15.65
  -1   6   0  544.80    8.09
   1  -6   0  551.59    7.97
   1  -6   0  538.88    7.91
  -1   6   0  576.80   15.17
   1  -6   0  555.80   15.28
   1  -6   0  550.65   14.51
  -1   6   0  526.40    8.14
   1  -6   0  563.01   14.35
   1  -6   0  531.40    7.98
  -1   6   0  562.01   14.49
  -1   6   0  533.85    8.69
   1  -6   0  538.75    7.49
   1  -6   0  559.91   14.34
  -1   6   0  539.35   13.40
  -1   6   0  533.17    8.45
  -1   6   0  556.62   14.34
  -1   6   0  541.74    8.68
   1  -6   0  536.28    8.07
   1  -6   0  574.09   14.61
   1  -6   0  538.82    7.71
  -1   6   0  512.65   13.67
  -1   6   0  572.43   14.66
  -1   6   0  565.00   14.46
  -1   6   0  554.52   14.44
   1  -6   0  560.40   14.82
  -1   6  -1  176.94    4.87
  -1   6  -1  173.32    4.81
   1  -6   1  176.61    4.57
   1  -6   1  188.91    9.08
  -1   6  -1  182.81    5.15
   1  -6   1  167.11    7.35
  -1   6  -1  183.41    5.15
   1  -6   1  180.69    4.59
   1  -6   1  183.98    4.74
  -1   6  -1  171.69    7.78
  -1   6  -1  167.74    8.05
   1  -6   1  185.69    4.75
  -1   6  -1  184.39    4.86
   1  -6   1  191.24    4.86
   1  -6   1  175.37    4.69
  -1   6  -2   15.24    1.49
   1  -6   2   14.07    1.38
  -1   6  -2   14.60    1.51
   1  -6   2   12.57    1.24
   1  -6   2   15.33    1.44
  -1   6  -2   14.08    1.51
  -1   6  -2   13.32    1.45
  -1   6  -2   17.83    1.57
   1  -6   2   15.20    1.44
   1  -6   2   14.62    1.40
   1  -6   2   16.33    1.48
  -1   6  -3   39.92    2.40
   1  -6   3   43.39    2.22
   1  -6   3   41.50    2.23
  -1   6  -3   41.48    2.52
  -1   6  -3   42.71    2.44
   1  -6   3   43.99    2.17
   1  -6   3   46.12    2.42
  -1   6  -3   44.94    2.58
   1  -6   3   43.89    2.41
   1  -6   3   44.47    2.36
   1  -6   3   43.18    2.27
  -1   6  -4    3.46    0.80
  -1   6  -4    4.82    0.87
   1  -6   4    4.30    0.85
   1  -6   4    4.20    0.82
   1  -6   4    7.31    0.95
   1  -6   4    4.00    0.74
   1  -6   4    3.98    0.86
  -1   6  -4    4.49    0.91
  -1   6  -4    4.14    0.89
   1  -6   4    4.45    0.74
   1  -6   4    3.41    0.70
   1  -6   5  126.88    3.56
   1  -6   5  130.66    3.33
  -1   6  -5  135.84    4.09
   1  -6   5  134.54    3.59
   1  -6   5  128.27    3.70
   1  -6   5  123.24    3.48
   1  -6   5  133.18    3.90
  -1   6  -5  125.64    3.61
  -1   6  -5  124.68    3.91
  -1   6  -5  129.36    4.10
   1  -6   6    7.93    0.89
  -1   6  -6    8.18    1.02
   1  -6   6    8.45    0.97
   1  -6   6    9.11    0.92
   1  -6   6   10.57    1.04
  -1   6  -6    9.13    1.09
  -1   6  -6    8.52    0.97
   1  -6   6    8.65    0.85
  -1   6  -7    2.92    0.60
   1  -6   7    3.28    0.52
  -1   6  -7    2.78    0.53
   1  -6   7    3.25    0.60
  -1   6  -7    3.96    0.68
   1  -6   7    2.63    0.50
   1  -6   7    2.98    0.54
  -1   6  -8   13.98    0.81
  -1   6  -8   13.28    0.78
   1  -5 -12   80.01    2.00
   1  -5 -12   87.53    2.31
   1  -5 -12   83.45    2.31
   1  -5 -12   81.10    2.16
  -1   5  12   84.42    2.47
   1  -5 -12   74.90    1.85
  -1   5  11  224.10    4.23
  -1   5  11  226.54    4.19
   1  -5 -11  220.82    4.03
   1  -5 -11  219.88    4.43
  -1   5  11  228.03    4.86
   1  -5 -11  223.89    4.52
  -1   5  11  217.54    4.02
   1  -5 -11  223.22    4.48
   1  -5 -11  221.96    4.19
  -1   5  11  227.55    4.80
   1  -5 -10   40.42    2.20
   1  -5 -10   50.58    2.37
  -1   5  10   53.57    2.44
   1  -5 -10   51.09    2.44
   1  -5 -10   49.29    2.18
  -1   5  10   48.71    2.53
  -1   5  10   50.73    2.37
  -1   5  10   51.02    2.22
   1  -5 -10   51.10    2.42
  -1   5  10   50.37    2.53
   1  -5  -9  164.81    4.59
  -1   5   9  155.29    4.57
  -1   5   9  164.57    4.79
  -1   5   9  162.92    4.59
  -1   5   9  165.21    4.61
   1  -5  -9  166.22    4.09
   1  -5  -9  156.36    3.95
   1  -5  -9  164.11    4.56
   1  -5  -9  162.88    4.41
  -1   5   9  166.62    4.26
  -1   5   8  191.14    5.19
   1  -5  -8  190.22    4.95
  -1   5   8  181.35    4.94
   1  -5  -8  186.16    4.57
   1  -5  -8  191.54    4.80
   1  -5  -8  185.73    4.59
  -1   5   8  191.04    5.11
  -1   5   8  195.62    5.17
   1  -5  -8  192.34    4.90
  -1   5   7  177.04    8.09
  -1   5   7  165.04    7.85
   1  -5  -7  174.68    9.05
  -1   5   7  186.42    5.06
   1  -5  -7  185.65    4.76
   1  -5  -7  166.72    8.43
   1  -5  -7  159.17    8.40
  -1   5   7  181.05    8.23
  -1   5   7  186.75    5.06
   1  -5  -7  179.87    4.53
  -1   5   7  189.39    5.06
   1  -5  -7  185.27    8.39
  -1   5   7  181.50    4.84
  -1   5   7  176.46    8.15
   1  -5  -7  169.68    8.21
   1  -5  -7  190.77    8.98
  -1   5   7  179.65    7.97
  -1   5   7  179.68    8.25
   1  -5  -7  185.56    4.62
  -1   5   7  181.68    8.30
  -1   5   7  174.45    8.16
   1  -5  -7  184.74    4.77
   1  -5  -7  179.11    8.23
   1  -5  -7  178.03    8.24
  -1   5   6  645.67   15.09
  -1   5   6  626.80    9.00
  -1   5   6  658.71    9.29
   1  -5  -6  642.27    8.64
   1  -5  -6  640.69   16.77
   1  -5  -6  615.82   14.48
  -1   5   6  620.78   14.24
  -1   5   6  660.14   15.28
   1  -5  -6  665.49   15.24
  -1   5   6  617.48   14.89
   1  -5  -6  646.12    8.50
  -1   5   6  682.64   15.26
  -1   5   6  647.28   14.96
   1  -5  -6  659.05   15.28
  -1   5   6  640.72   14.94
   1  -5  -6  604.55   15.42
  -1   5   6  626.47    8.62
   1  -5  -6  639.53    8.43
   1  -5  -6  664.12   15.25
   1  -5  -6  655.01    8.52
   1  -5  -6  655.07   15.64
  -1   5   6  654.96   14.98
  -1   5   6  638.25    9.18
   1  -5  -6  644.63   15.90
   1  -5  -6  640.41   16.07
  -1   5   5  641.38   14.42
   1  -5  -5  583.70   14.64
   1  -5  -5  581.81   14.73
   1  -5  -5  652.19   15.11
  -1   5   5  647.75   14.47
   1  -5  -5  641.98   14.41
   1  -5  -5  604.22   14.19
  -1   5   5  625.13   14.26
  -1   5   5  645.28   14.42
   1  -5  -5  630.51   14.52
   1  -5  -5  646.34   14.55
  -1   5   5  586.36   13.22
  -1   5   5  645.35   14.63
   1  -5  -5  623.46   15.17
  -1   5   5  642.04   14.39
  -1   5   5  552.16   12.52
  -1   5   5  597.76   14.18
   1  -5  -5  631.24   14.31
   1  -5  -4   16.72    2.37
   1  -5  -4   19.54    2.45
   1  -5  -4   18.44    2.58
   1  -5  -4   21.85    2.63
   1  -5  -4   19.59    2.63
   1  -5  -4   17.97    2.44
  -1   5   4   19.35    2.48
   1  -5  -4   18.35    2.49
  -1   5   4   17.96    2.26
  -1   5   4   16.95    2.36
   1  -5  -4   17.96    2.51
  -1   5   4   18.39    2.48
  -1   5   4   15.52    2.28
  -1   5   4   20.18    2.59
  -1   5   4   20.60    2.56
  -1   5   4   20.04    2.53
  -1   5   4   18.67    2.29
   1  -5  -3  139.28    6.70
  -1   5   3  134.01    6.28
  -1   5   3  138.91    6.32
  -1   5   3  138.66    6.55
   1  -5  -3  135.98    6.46
  -1   5   3  135.02    5.99
  -1   5   3  139.80    6.41
   1  -5  -3  136.46    6.60
   1  -5  -3  130.35    6.69
  -1   5   3  130.53    5.97
  -1   5   3  146.35    6.55
  -1   5   3  146.62    6.62
   1  -5  -3  132.37    6.18
   1  -5  -3  134.66    6.34
   1  -5  -3  137.17    6.29
   1  -5  -3  130.33    6.48
  -1   5   3  140.16    6.44
  -1   5   2  662.16   13.69
   1  -5  -2  676.92   14.64
   1  -5  -2  656.01   13.46
   1  -5  -2  643.37   13.95
  -1   5   2  610.40   12.69
   1  -5  -2  673.79   14.14
  -1   5   2  672.48   13.80
  -1   5   2  677.80   14.17
   1  -5  -2  617.97   14.11
  -1   5   2  670.56   13.81
  -1   5   2  598.19   12.76
   1  -5  -2  633.81   13.28
   1  -5  -2  662.56   13.80
  -1   5   2  621.42   12.61
  -1   5   2  689.02   13.98
   1  -5  -1   46.83    3.75
   1  -5  -1   44.66    3.72
  -1   5   1   48.82    3.81
  -1   5   1   44.08    3.29
  -1   5   1   49.20    3.83
   1  -5  -1   49.32    3.79
   1  -5  -1   51.73    4.15
  -1   5   1   48.74    3.55
  -1   5   1   48.31    3.80
  -1   5   1   49.47    3.86
  -1   5   1   47.30    3.85
  -1   5   1   45.41    3.61
  -1   5   1   41.96    3.51
   1  -5  -1   46.61    3.71
   1  -5  -1   46.57    3.97
   1  -5  -1   46.33    3.67
  -1   5   0  457.07   11.74
   1  -5   0  464.84   12.61
   1  -5   0  448.95   11.40
  -1   5   0  462.56   12.26
  -1   5   0  443.80   10.79
   1  -5   0  450.41   11.69
   1  -5   0  457.80   11.99
   1  -5   0  467.11   11.72
   1  -5   0  469.39   11.67
  -1   5   0  479.67   11.87
  -1   5   0  441.40   11.38
  -1   5   0  469.72   11.75
   1  -5   0  440.95   12.17
  -1   5   0  453.56   10.19
  -1   5   0  482.12   11.93
  -1   5   0  459.84   11.67
   1  -5   1    0.90    0.90
   1  -5   1   -0.17    0.70
  -1   5  -1    0.86    0.98
  -1   5  -1    1.09    0.60
  -1   5  -1    1.25    0.78
   1  -5   1   -0.39    0.70
  -1   5  -1    1.62    0.83
  -1   5  -1    1.18    0.71
  -1   5  -1    0.80    0.74
  -1   5  -1    1.29    0.78
   1  -5   1    1.06    0.83
  -1   5  -1    0.26    0.58
   1  -5   1    0.42    0.73
   1  -5   1    0.61    0.62
  -1   5  -1   -0.27    0.59
   1  -5   1    3.43    1.31
   1  -5   2   65.41    4.51
   1  -5   2   74.04    4.97
  -1   5  -2   69.61    4.67
  -1   5  -2   69.74    4.66
   1  -5   2   70.82    2.80
   1  -5   2   72.95    5.06
   1  -5   2   73.18    5.19
  -1   5  -2   67.93    2.99
  -1   5  -2   72.50    3.12
   1  -5   2   75.20    5.03
   1  -5   2   68.74    5.17
  -1   5  -2   63.89    4.88
   1  -5   2   70.52    4.92
  -1   5  -2   69.18    4.83
  -1   5  -2   69.24    4.84
  -1   5  -2   70.56    2.95
   1  -5   2   67.83    2.76
  -1   5  -2   69.84    4.89
   1  -5   2   71.46    2.86
   1  -5   2   68.33    2.73
  -1   5  -2   71.69    4.91
  -1   5  -2   70.04    2.99
  -1   5  -2   74.29    4.96
  -1   5  -2   68.84    4.97
  -1   5  -3 1232.07   20.76
   1  -5   3 1302.41   11.96
  -1   5  -3 1262.35   13.33
   1  -5   3 1295.09   21.56
   1  -5   3 1235.55   20.58
  -1   5  -3 1268.49   21.29
   1  -5   3 1307.30   21.50
  -1   5  -3 1255.87   21.44
  -1   5  -3 1306.89   13.46
  -1   5  -3 1282.18   22.09
   1  -5   3 1292.54   11.82
  -1   5  -3 1307.86   21.62
   1  -5   3 1286.69   12.05
   1  -5   3 1303.35   12.60
   1  -5   3 1307.34   12.42
  -1   5  -3 1286.63   13.16
   1  -5   3 1257.64   11.31
  -1   5  -3 1323.58   21.81
   1  -5   3 1279.46   21.74
   1  -5   3 1198.29   19.63
   1  -5   3 1280.98   12.01
  -1   5  -3 1265.54   21.61
   1  -5   3 1290.42   12.19
  -1   5  -3 1275.74   13.01
   1  -5   3 1281.67   22.26
  -1   5  -3 1251.92   20.58
   1  -5   3 1338.71   21.79
   1  -5   4  473.22    7.21
  -1   5  -4  476.15    8.33
   1  -5   4  462.33    7.71
  -1   5  -4  462.13    7.99
   1  -5   4  464.52    7.52
  -1   5  -4  473.17    8.15
   1  -5   4  470.62    7.33
   1  -5   4  465.41    7.57
   1  -5   4  470.48    7.33
  -1   5  -4  482.73    8.40
   1  -5   4  478.26    7.46
  -1   5  -5   41.19    2.46
   1  -5   5   38.09    1.98
  -1   5  -5   39.24    2.27
  -1   5  -5   38.87    2.10
   1  -5   5   40.83    2.33
   1  -5   5   40.88    2.29
   1  -5   5   38.49    2.10
  -1   5  -5   40.21    2.48
   1  -5   5   37.87    2.03
   1  -5   5   40.11    2.24
  -1   5  -5   40.61    2.46
   1  -5   5   39.93    2.23
   1  -5   6  136.22    3.65
  -1   5  -6  132.47    4.33
   1  -5   6  130.55    3.96
  -1   5  -6  131.27    4.24
   1  -5   6  132.32    3.85
   1  -5   6  134.24    4.00
  -1   5  -6  136.88    4.20
   1  -5   6  134.68    3.96
  -1   5  -6  132.47    3.80
   1  -5   7   32.95    1.86
  -1   5  -7   32.67    1.86
   1  -5   7   33.44    1.88
   1  -5   7   34.33    1.80
  -1   5  -7   33.59    2.05
   1  -5   7   32.41    1.87
  -1   5  -7   32.13    1.98
  -1   5  -7   30.41    1.70
   1  -5   8   60.76    2.09
  -1   5  -8   56.48    2.26
   1  -5   8   60.08    1.90
  -1   5  -8   56.04    1.93
   1  -5   8   59.91    2.21
   1  -5   8   60.32    2.22
  -1   5  -8   57.01    1.96
  -1   5  -8   59.82    2.34
  -1   5  -9   12.11    0.82
  -1   5  -9   13.65    0.92
   1  -5   9   12.94    0.84
   1  -5   9   13.33    0.86
  -1   4  13   73.58    1.87
   1  -4 -13   79.47    1.91
  -1   4  13   75.75    1.85
   1  -4 -12    9.33    0.95
   1  -4 -12    8.16    0.80
   1  -4 -12    8.77    0.87
  -1   4  12    8.30    0.85
  -1   4  12    7.84    0.88
   1  -4 -12    7.04    0.73
  -1   4  12    8.70    0.93
   1  -4 -12    8.17    0.85
  -1   4  11   20.80    1.61
   1  -4 -11   20.84    1.47
   1  -4 -11   20.80    1.46
   1  -4 -11   21.33    1.56
   1  -4 -11   20.74    1.49
  -1   4  11   22.94    1.57
  -1   4  11   20.48    1.33
   1  -4 -11   22.11    1.53
  -1   4  11   22.25    1.66
  -1   4  10    5.68    0.85
   1  -4 -10    5.83    0.95
   1  -4 -10    5.53    0.90
  -1   4  10    6.28    0.94
   1  -4 -10    5.43    0.95
  -1   4  10    6.60    0.96
   1  -4 -10    4.61    0.84
   1  -4 -10    6.33    0.97
  -1   4  10    5.74    0.85
  -1   4  10    6.53    1.09
  -1   4  10    5.69    1.04
   1  -4  -9 1168.80   12.21
  -1   4   9 1113.57   12.44
  -1   4   9 1184.98   12.21
  -1   4   9 1131.59   12.62
  -1   4   9 1123.32   11.74
   1  -4  -9 1142.96   11.73
  -1   4   9 1169.60   12.01
   1  -4  -9 1153.97   12.15
   1  -4  -9 1141.86   12.05
  -1   4   8 1170.31   20.67
   1  -4  -8 1178.54   21.86
  -1   4   8 1147.54   20.56
   1  -4  -8 1197.16   21.14
  -1   4   8 1128.02   12.25
  -1   4   8 1173.80   20.85
  -1   4   8 1130.94   20.08
  -1   4   8 1158.06   20.49
   1  -4  -8 1194.71   21.18
   1  -4  -8 1145.56   11.97
   1  -4  -8 1099.35   21.07
   1  -4  -8 1138.53   11.43
  -1   4   8 1197.11   20.91
  -1   4   8 1148.92   12.09
  -1   4   8 1165.33   20.62
  -1   4   8 1147.67   11.78
   1  -4  -8 1136.37   10.85
   1  -4  -8 1149.28   22.70
   1  -4  -8 1153.68   12.03
  -1   4   8 1139.40   12.14
   1  -4  -8 1176.64   21.29
   1  -4  -8 1176.94   12.10
   1  -4  -8 1136.25   20.70
  -1   4   8 1127.07   19.78
  -1   4   8 1170.67   12.71
   1  -4  -8 1135.44   22.11
   1  -4  -7  301.86   11.19
  -1   4   7  300.11    9.97
   1  -4  -7  290.14    5.49
  -1   4   7  322.15   10.38
  -1   4   7  300.63    6.21
   1  -4  -7  291.10   10.65
  -1   4   7  303.39    6.11
  -1   4   7  306.93   10.18
   1  -4  -7  314.85    6.01
  -1   4   7  312.69   10.22
  -1   4   7  318.12    6.21
   1  -4  -7  327.10   10.79
   1  -4  -7  310.75   10.34
   1  -4  -7  323.55   10.48
  -1   4   7  311.68   10.15
   1  -4  -7  309.68   10.72
  -1   4   7  322.79   10.46
   1  -4  -7  304.84    5.95
  -1   4   7  311.13   10.25
   1  -4  -7  314.81   10.41
  -1   4   7  317.48    6.20
   1  -4  -7  311.09   10.80
  -1   4   7  286.98    9.67
   1  -4  -6  234.18    8.68
  -1   4   6  232.60    8.32
  -1   4   6  212.81    8.07
   1  -4  -6  196.55    7.39
  -1   4   6  200.63    7.61
   1  -4  -6  231.07    8.82
   1  -4  -6  233.10    9.41
  -1   4   6  219.86    7.46
  -1   4   6  232.81    8.35
   1  -4  -6  226.02    8.30
   1  -4  -6  228.86    8.39
  -1   4   6  231.75    8.40
   1  -4  -6  228.08    8.79
  -1   4   6  231.93    8.30
  -1   4   6  225.78    8.24
  -1   4   6  229.81    8.37
   1  -4  -6  215.02    8.69
   1  -4  -6  236.77    8.48
  -1   4   5  236.40    7.89
  -1   4   5  232.00    7.99
   1  -4  -5  237.29    7.92
   1  -4  -5  211.89    7.46
  -1   4   5  228.21    7.82
  -1   4   5  224.73    7.21
  -1   4   5  231.95    7.86
  -1   4   5  220.57    7.43
   1  -4  -5  220.03    8.14
   1  -4  -5  230.71    7.88
   1  -4  -5  227.26    7.79
  -1   4   5  235.09    7.87
   1  -4  -5  238.82    8.07
  -1   4   5  221.67    7.85
  -1   4   5  224.93    7.73
   1  -4  -5  235.02    8.52
   1  -4  -5  226.66    8.32
   1  -4  -5  233.88    8.20
   1  -4  -4  798.02   14.08
   1  -4  -4  841.89   14.87
  -1   4   4  837.17   14.22
  -1   4   4  846.65   14.21
   1  -4  -4  833.86   14.13
   1  -4  -4  827.89   15.08
   1  -4  -4  846.48   14.53
  -1   4   4  839.27   14.28
  -1   4   4  789.81   13.25
   1  -4  -4  843.90   14.17
  -1   4   4  859.85   14.42
   1  -4  -4  842.66   14.32
   1  -4  -4  805.39   14.97
  -1   4   4  800.36   14.20
  -1   4   4  764.05   12.84
  -1   4   4  851.98   14.53
  -1   4   4  859.12   14.37
   1  -4  -4  820.61   14.91
  -1   4   3  220.91    6.98
   1  -4  -3  217.47    6.96
   1  -4  -3  206.70    7.22
  -1   4   3  207.52    6.54
  -1   4   3  210.88    6.82
  -1   4   3  212.79    6.58
   1  -4  -3  210.14    7.12
   1  -4  -3  208.64    6.92
   1  -4  -3  220.34    7.55
   1  -4  -3  211.62    7.17
  -1   4   3  218.85    7.03
  -1   4   3  209.82    6.91
  -1   4   3  225.66    7.09
   1  -4  -3  228.38    7.03
  -1   4   3  214.52    7.11
   1  -4  -3  217.58    7.38
   1  -4  -3  210.21    6.81
  -1   4   3  216.18    6.91
  -1   4   2  127.39    4.90
   1  -4  -2  138.16    5.70
   1  -4  -2  130.49    5.33
  -1   4   2  126.54    5.20
  -1   4   2  129.15    5.16
   1  -4  -2  129.80    5.23
   1  -4  -2  129.18    5.31
  -1   4   2  133.60    5.38
   1  -4  -2  128.91    5.55
   1  -4  -2  128.07    4.29
  -1   4   2  138.60    5.59
  -1   4   2  131.07    4.09
  -1   4   2  131.90    5.24
  -1   4   2  130.64    5.34
   1  -4  -2  122.54    5.11
   1  -4  -2  128.88    5.58
  -1   4   2  136.41    5.43
   1  -4  -2  118.64    5.20
  -1   4   2  128.51    5.24
   1  -4  -1  137.83    5.55
   1  -4  -1  155.69    5.68
   1  -4  -1  151.46    5.97
   1  -4  -1  138.03    5.80
  -1   4   1  150.73    5.83
   1  -4  -1  149.04    4.53
  -1   4   1  140.96    4.68
   1  -4  -1  151.94    5.71
  -1   4   1  143.11    5.52
   1  -4  -1  139.05    5.61
  -1   4   1  155.41    5.71
  -1   4   1  154.04    5.68
   1  -4  -1  147.56    5.57
  -1   4   1  154.58    5.66
  -1   4   1  146.22    5.21
  -1   4   1  149.82    5.60
   1  -4  -1  136.99    4.20
  -1   4   1  149.86    5.64
   1  -4  -1  153.02    5.62
  -1   4   1  144.83    5.21
   1  -4   0   69.39    4.24
  -1   4   0   74.20    4.12
   1  -4   0   63.46    3.99
   1  -4   0   65.93    3.21
  -1   4   0   65.98    3.56
   1  -4   0   63.51    3.76
  -1   4   0   62.35    3.43
  -1   4   0   70.61    3.97
  -1   4   0   70.07    3.94
  -1   4   0   65.43    3.81
  -1   4   0   65.49    3.81
   1  -4   0   71.70    3.96
   1  -4   0   67.50    3.84
  -1   4   0   58.75    3.20
   1  -4   0   68.33    3.13
   1  -4   0   68.47    3.94
  -1   4   0   64.98    3.98
  -1   4   0   65.04    3.85
   1  -4   0   67.84    4.05
   1  -4   1   38.10    3.00
   1  -4   1   37.22    3.26
   1  -4   1   34.59    2.59
  -1   4  -1   38.01    3.10
   1  -4   1   38.35    3.02
   1  -4   1   36.00    3.00
  -1   4  -1   36.14    2.80
   1  -4   1   37.13    3.10
   1  -4   1   33.81    2.36
  -1   4  -1   34.20    2.95
  -1   4  -1   37.26    2.98
  -1   4  -1   38.91    3.02
  -1   4  -1   40.18    2.98
  -1   4  -1   42.65    3.22
  -1   4  -1   38.04    2.99
   1  -4   1   35.69    2.90
   1  -4   2    8.16    1.51
  -1   4  -2    6.80    1.34
  -1   4  -2    9.13    1.58
  -1   4  -2    7.29    1.46
   1  -4   2    9.08    1.69
   1  -4   2   10.92    1.64
  -1   4  -2    8.06    1.54
  -1   4  -2    9.86    1.62
  -1   4  -2    6.29    1.36
  -1   4  -2    6.68    1.36
  -1   4  -2    9.59    1.63
   1  -4   2    8.62    1.52
   1  -4   2    5.51    1.09
   1  -4   2    6.68    1.35
   1  -4   2    8.88    1.68
  -1   4  -2    7.38    1.42
   1  -4   2    9.86    1.69
   1  -4   2    7.07    1.38
  -1   4  -3   57.63    4.33
  -1   4  -3   52.33    3.98
   1  -4   3   56.73    4.05
  -1   4  -3   59.31    4.13
  -1   4  -3   57.93    4.19
   1  -4   3   58.89    4.12
   1  -4   3   56.99    4.07
   1  -4   3   58.56    4.13
  -1   4  -3   58.46    3.99
  -1   4  -3   57.03    4.09
   1  -4   3   53.60    3.84
  -1   4  -3   55.58    3.98
  -1   4  -3   56.27    4.07
  -1   4  -3   55.64    4.04
   1  -4   3   58.45    4.18
   1  -4   3   56.23    4.17
  -1   4  -4  150.09    7.03
  -1   4  -4  162.14    7.26
   1  -4   4  153.64    7.05
   1  -4   4  151.40    7.08
  -1   4  -4  156.39    7.07
   1  -4   4  153.78    7.30
  -1   4  -4  167.33    7.38
   1  -4   4  152.62    7.00
  -1   4  -4  155.39    7.29
   1  -4   4  152.54    6.96
  -1   4  -4  162.17    7.61
  -1   4  -4  156.32    7.08
   1  -4   4  154.12    7.07
  -1   4  -4  143.41    6.85
   1  -4   4  154.93    7.03
   1  -4   4  144.86    6.82
   1  -4   5   11.73    1.26
  -1   4  -5   10.24    1.95
   1  -4   5   15.55    2.43
   1  -4   5   14.22    1.37
  -1   4  -5   14.04    2.26
  -1   4  -5   13.81    1.34
   1  -4   5   14.56    2.29
   1  -4   5   12.61    2.18
  -1   4  -5   12.35    1.35
  -1   4  -5   13.70    2.38
  -1   4  -5   12.31    2.17
  -1   4  -5   12.72    2.17
   1  -4   5   14.62    1.34
   1  -4   5   10.65    2.02
   1  -4   5   13.20    2.26
  -1   4  -5   13.10    1.44
   1  -4   5   12.30    2.13
   1  -4   5    9.92    2.01
   1  -4   5   13.37    1.35
  -1   4  -5    9.93    1.94
   1  -4   5   13.53    1.23
  -1   4  -5   13.73    2.28
   1  -4   5   14.38    2.46
  -1   4  -5   14.55    2.44
   1  -4   5   13.88    1.29
   1  -4   6  532.63    8.30
   1  -4   6  571.20    8.06
  -1   4  -6  553.03    9.06
   1  -4   6  555.15    8.29
   1  -4   6  546.98    8.03
  -1   4  -6  530.01    7.95
  -1   4  -6  545.60    7.92
   1  -4   6  545.51    7.49
   1  -4   6  557.56    8.38
  -1   4  -6  560.35    9.06
  -1   4  -6  542.56    8.28
  -1   4  -7 1072.53   12.43
   1  -4   7 1107.06   11.41
   1  -4   7 1103.22   10.75
  -1   4  -7 1102.40   12.58
  -1   4  -7 1091.56   11.23
   1  -4   7 1087.47   11.73
   1  -4   7 1060.47   10.96
  -1   4  -7 1111.46   11.70
   1  -4   7 1123.28   11.88
  -1   4  -7 1077.33   11.87
  -1   4  -7 1068.41   10.88
  -1   4  -8    0.16    0.37
  -1   4  -8    0.53    0.59
   1  -4   8    0.23    0.37
  -1   4  -8    0.19    0.49
   1  -4   8    0.80    0.60
  -1   4  -8    0.75    0.47
   1  -4   8   -0.06    0.44
   1  -4   8    0.37    0.39
   1  -4   8    0.10    0.49
  -1   4  -8    0.39    0.38
  -1   4  -8    0.00    0.44
   1  -4   9  148.84    3.10
   1  -4   9  155.32    3.68
  -1   4  -9  154.75    3.15
  -1   4  -9  154.85    3.84
  -1   4  -9  153.72    3.32
  -1   4  -9  151.44    3.65
   1  -4   9  159.54    3.75
  -1   4  -9  156.82    3.59
   1  -4  10    0.15    0.32
  -1   4 -10    0.09    0.34
  -1   4 -10   -0.13    0.27
  -1   4 -10   -0.01    0.29
   1  -4  10    0.34    0.38
  -1   3  13    0.75    0.39
  -1   3  13    0.76    0.31
   1  -3 -13    0.30    0.35
   1  -3 -13    0.56    0.36
   1  -3 -13    0.76    0.39
  -1   3  13    0.17    0.28
  -1   3  13    1.62    0.38
   1  -3 -12   34.21    1.72
   1  -3 -12   31.50    1.45
   1  -3 -12   31.75    1.45
  -1   3  12   34.24    1.77
  -1   3  12   32.79    1.75
   1  -3 -12   34.06    1.76
  -1   3  12   33.87    1.66
  -1   3  12   32.24    1.73
   1  -3 -12   32.15    1.52
   1  -3 -12   32.76    1.76
  -1   3  11   12.58    1.18
   1  -3 -11   11.61    1.15
   1  -3 -11   11.96    1.14
   1  -3 -11   11.06    1.19
   1  -3 -11   11.16    1.10
  -1   3  11   12.69    1.29
   1  -3 -11   12.14    1.29
   1  -3 -11   12.44    1.23
  -1   3  11   11.82    1.27
  -1   3  11   11.05    1.22
   1  -3 -10  322.73    6.19
   1  -3 -10  335.29    6.37
   1  -3 -10  324.96    6.47
  -1   3  10  329.44    6.53
  -1   3  10  311.36    6.53
  -1   3  10  322.74    6.59
   1  -3 -10  326.23    6.03
   1  -3 -10  327.17    6.60
   1  -3 -10  333.19    6.49
  -1   3  10  321.39    6.23
  -1   3   9  154.75    4.49
  -1   3   9  146.32    4.51
  -1   3   9  144.42    4.21
   1  -3  -9  148.54    4.31
  -1   3   9  150.97    4.53
   1  -3  -9  146.84    4.44
   1  -3  -9  147.91    4.31
   1  -3  -9  148.07    4.36
  -1   3   8  277.39    9.82
   1  -3  -8  283.87    5.93
   1  -3  -8  257.22    9.62
  -1   3   8  275.08    5.92
   1  -3  -8  289.34   10.29
  -1   3   8  262.14    9.54
  -1   3   8  270.59    5.75
   1  -3  -8  253.88   10.00
   1  -3  -8  281.43    5.79
  -1   3   8  295.39   10.11
  -1   3   8  265.57    9.65
   1  -3  -8  271.49    5.72
   1  -3  -8  274.58   10.71
   1  -3  -8  279.30   10.35
  -1   3   8  277.74    9.69
   1  -3  -8  294.50    5.91
  -1   3   8  289.01    5.75
  -1   3   8  268.30    9.69
   1  -3  -8  280.28   10.05
  -1   3   8  265.53    5.56
   1  -3  -8  271.95    9.90
  -1   3   8  276.67    6.01
  -1   3   8  263.19    8.95
   1  -3  -7    9.04    1.79
   1  -3  -7    7.47    1.65
   1  -3  -7   10.29    1.94
   1  -3  -7    7.21    1.56
   1  -3  -7    9.76    1.78
  -1   3   7    9.53    1.75
   1  -3  -7    7.63    1.91
  -1   3   7    7.27    1.58
  -1   3   7    6.52    1.44
  -1   3   7    8.46    1.69
  -1   3   7   11.02    1.92
   1  -3  -7    7.08    1.39
  -1   3   7    8.98    1.71
   1  -3  -7    8.85    1.81
  -1   3   7    7.66    1.71
  -1   3   7    9.68    1.79
   1  -3  -7    6.58    1.60
   1  -3  -6 2231.43   24.34
   1  -3  -6 2302.43   25.93
   1  -3  -6 2222.93   26.91
   1  -3  -6 2189.15   21.47
  -1   3   6 2189.17   23.76
  -1   3   6 2214.33   23.92
   1  -3  -6 2230.28   24.19
  -1   3   6 2226.36   23.85
   1  -3  -6 2127.49   25.09
  -1   3   6 2113.08   22.95
  -1   3   6 2244.43   24.28
  -1   3   6 2124.13   23.26
  -1   3   6 2244.19   24.05
   1  -3  -6 2320.82   25.27
   1  -3  -6 2095.73   24.34
   1  -3  -6 2253.29   24.44
  -1   3   6 2218.35   24.12
   1  -3  -6 2185.73   21.41
  -1   3   5  881.34   13.96
   1  -3  -5  924.38   14.37
  -1   3   5  892.10   14.04
  -1   3   5  968.63   14.74
   1  -3  -5  880.08   15.72
   1  -3  -5  914.53   12.95
  -1   3   5  936.84   14.31
  -1   3   5  931.99   14.47
  -1   3   5  916.27   13.34
   1  -3  -5  881.70   14.24
   1  -3  -5  955.55   15.62
   1  -3  -5  907.61   14.90
   1  -3  -5  872.81   14.85
   1  -3  -5  894.97   14.67
   1  -3  -5  923.73   14.29
  -1   3   5  917.20   14.19
  -1   3   5  927.04   14.40
   1  -3  -5  931.68   13.57
  -1   3   5  896.89   13.71
   1  -3  -4  312.64    7.88
   1  -3  -4  329.24    7.97
  -1   3   4  330.53    7.93
  -1   3   4  335.31    7.97
  -1   3   4  326.76    7.87
  -1   3   4  314.75    7.34
   1  -3  -4  315.49    8.38
   1  -3  -4  315.86    7.14
  -1   3   4  339.71    8.04
   1  -3  -4  320.05    8.35
   1  -3  -4  311.66    7.59
  -1   3   4  311.98    7.81
  -1   3   4  326.15    7.86
   1  -3  -4  314.57    8.24
  -1   3   4  305.86    7.41
  -1   3   4  312.27    7.94
   1  -3  -4  333.84    7.96
   1  -3  -4  329.80    7.90
   1  -3  -4  338.25    8.36
  -1   3   3  914.60   12.42
  -1   3   3  887.73   12.25
   1  -3  -3  870.59   13.04
   1  -3  -3  856.72    7.73
  -1   3   3  884.94   12.26
   1  -3  -3  879.47   12.15
  -1   3   3  863.96    8.72
   1  -3  -3  860.36   12.15
  -1   3   3  873.71   11.66
  -1   3   3  893.60   12.26
   1  -3  -3  805.87   11.96
  -1   3   3  905.46   12.52
   1  -3  -3  885.28   12.53
   1  -3  -3  881.33   12.82
  -1   3   3  869.17   11.71
   1  -3  -3  846.32   12.92
  -1   3   3  876.93   12.39
   1  -3  -3  872.68   12.90
   1  -3  -3  871.58   12.11
  -1   3   3  867.77   12.50
  -1   3   2  241.24    6.08
  -1   3   2  241.58    4.80
  -1   3   2  240.95    6.12
   1  -3  -2  252.05    6.29
  -1   3   2  248.10    6.21
   1  -3  -2  241.69    6.07
   1  -3  -2  241.48    6.38
   1  -3  -2  250.76    6.59
  -1   3   2  244.28    5.80
   1  -3  -2  242.33    6.29
  -1   3   2  246.70    6.34
   1  -3  -2  247.71    4.15
   1  -3  -2  242.73    6.55
  -1   3   2  251.64    6.18
   1  -3  -2  244.06    6.23
   1  -3  -2  238.21    6.45
  -1   3   2  248.83    6.18
  -1   3   2  245.42    6.16
   1  -3  -2  247.47    6.18
  -1   3   2  246.35    6.17
   1  -3  -1 4121.99   24.62
   1  -3  -1 4033.69   24.78
   1  -3  -1 4041.46   25.29
  -1   3   1 4076.99   24.73
   1  -3  -1 4039.72   25.73
  -1   3   1 4190.21   21.39
  -1   3   1 4066.18   22.83
   1  -3  -1 4164.95   24.63
  -1   3   1 4004.31   24.48
   1  -3  -1 4106.89   26.20
  -1   3   1 4071.65   24.77
  -1   3   1 4086.02   24.75
  -1   3   1 4029.71   24.67
  -1   3   1 4282.03   25.27
  -1   3   1 4104.11   23.72
   1  -3  -1 4212.54   26.68
  -1   3   1 4083.07   25.58
   1  -3  -1 4067.28   18.80
   1  -3  -1 4125.10   24.77
   1  -3  -1 4031.41   19.52
   1  -3   0 1366.64   14.39
  -1   3   0 1381.23   14.42
   1  -3   0 1355.65   14.26
   1  -3   0 1252.26   11.41
  -1   3   0 1398.19   14.95
   1  -3   0 1367.38   15.35
  -1   3   0 1350.53   15.02
   1  -3   0 1381.56   14.52
   1  -3   0 1369.02   14.63
   1  -3   0 1320.64   12.10
  -1   3   0 1356.13   13.37
  -1   3   0 1393.59   14.69
  -1   3   0 1269.23   13.02
  -1   3   0 1287.39   14.37
  -1   3   0 1369.93   14.38
   1  -3   0 1331.08   15.42
   1  -3   0 1279.23   14.42
  -1   3   0 1343.76   12.68
  -1   3   0 1368.12   14.43
   1  -3   0 1349.43   14.90
  -1   3  -1  929.78   12.83
  -1   3  -1  915.01   12.36
   1  -3   1  973.69   12.65
   1  -3   1  946.20   12.93
  -1   3  -1  913.82   12.27
   1  -3   1  929.70   12.32
  -1   3  -1  918.21    9.91
   1  -3   1  953.85    9.30
   1  -3   1  948.76   12.68
   1  -3   1  916.19   12.29
   1  -3   1  937.37   10.49
  -1   3  -1  935.44   12.49
  -1   3  -1  883.03   12.27
   1  -3   1  941.34   12.45
  -1   3  -1  892.42   12.07
   1  -3   1  914.65   13.35
  -1   3  -1  933.71   12.71
  -1   3  -1  900.21   11.95
   1  -3   1  879.52   11.18
  -1   3  -1  916.82   11.53
  -1   3  -2    7.21    1.24
   1  -3   2    9.16    1.41
   1  -3   2    7.10    1.21
  -1   3  -2    6.86    1.28
   1  -3   2    8.02    1.30
   1  -3   2    7.35    1.08
  -1   3  -2    6.51    1.21
  -1   3  -2    8.79    1.41
   1  -3   2    8.09    1.30
   1  -3   2    8.55    1.40
   1  -3   2    8.48    1.49
   1  -3   2    8.51    1.37
  -1   3  -2    7.76    1.37
   1  -3   2    6.92    1.33
  -1   3  -2    7.98    1.33
  -1   3  -2    7.70    1.36
  -1   3  -2    8.32    1.38
  -1   3  -2    6.53    1.14
  -1   3  -3  850.94   13.65
  -1   3  -3  845.23   14.09
  -1   3  -3  803.20   13.37
   1  -3   3  798.92   13.21
   1  -3   3  851.39   13.78
   1  -3   3  837.61   13.43
  -1   3  -3  824.08   13.58
  -1   3  -3  832.14   13.51
  -1   3  -3  843.08   13.89
  -1   3  -3  843.60   14.36
  -1   3  -3  835.55   13.42
   1  -3   3  846.86   13.53
   1  -3   3  887.20   13.78
   1  -3   3  856.59   13.62
   1  -3   3  820.57   13.84
   1  -3   3  818.16   12.16
  -1   3  -3  829.98   13.02
   1  -3   4  534.74   11.84
  -1   3  -4  582.80   12.40
  -1   3  -4  584.57   12.75
   1  -3   4  552.34   12.02
  -1   3  -4  568.48   12.73
   1  -3   4  559.52   11.96
   1  -3   4  569.83   12.45
  -1   3  -4  553.12   11.92
  -1   3  -4  583.16   12.14
  -1   3  -4  575.77   12.12
   1  -3   4  537.97   11.04
   1  -3   4  586.42   12.38
   1  -3   4  567.73   12.04
   1  -3   4  576.11   12.07
  -1   3  -4  530.53   12.00
   1  -3   4  574.20   12.04
  -1   3  -4  557.77   12.00
   1  -3   5  136.77    6.44
   1  -3   5  140.36    6.47
   1  -3   5  145.29    6.53
  -1   3  -5  143.83    6.60
  -1   3  -5  134.02    6.12
   1  -3   5  144.50    6.75
  -1   3  -5  138.96    6.70
   1  -3   5  141.33    6.69
  -1   3  -5  140.87    6.47
  -1   3  -5  143.20    6.69
  -1   3  -5  142.00    6.70
   1  -3   5  138.08    6.41
  -1   3  -5  147.95    6.65
   1  -3   5  140.85    6.46
  -1   3  -5  135.51    6.75
  -1   3  -5  146.97    6.69
   1  -3   5  137.84    6.46
   1  -3   5  131.99    6.11
   1  -3   6   32.76    1.86
  -1   3  -6   35.31    3.70
   1  -3   6   34.66    3.62
   1  -3   6   34.90    2.09
   1  -3   6   33.77    3.56
  -1   3  -6   33.39    1.97
   1  -3   6   33.24    3.35
  -1   3  -6   34.16    2.23
   1  -3   6   34.73    3.47
   1  -3   6   33.58    3.40
   1  -3   6   32.61    2.02
   1  -3   6   34.94    3.54
   1  -3   6   34.72    2.07
  -1   3  -6   33.45    2.03
  -1   3  -6   39.03    3.69
  -1   3  -6   32.34    3.46
   1  -3   6   29.78    3.27
  -1   3  -6   35.57    3.60
  -1   3  -6   31.67    3.38
   1  -3   6   31.15    1.90
   1  -3   6   37.16    3.56
   1  -3   6   34.32    3.37
  -1   3  -6   34.62    2.22
  -1   3  -6   34.00    3.61
  -1   3  -6   34.94    3.55
   1  -3   6   34.12    1.99
  -1   3  -6   32.32    2.06
   1  -3   7  455.88    7.61
   1  -3   7  452.21    7.67
  -1   3  -7  456.33    7.87
  -1   3  -7  432.37    7.48
  -1   3  -7  452.82    8.11
  -1   3  -7  446.90    7.34
   1  -3   7  444.96    6.85
   1  -3   7  453.26    7.37
  -1   3  -7  453.50    8.12
   1  -3   7  439.01    7.15
   1  -3   7  432.42    7.46
   1  -3   8   60.85    2.58
  -1   3  -8   61.13    2.80
  -1   3  -8   62.18    2.95
  -1   3  -8   62.83    2.92
   1  -3   8   59.14    2.80
  -1   3  -8   61.87    3.01
  -1   3  -8   62.19    2.72
   1  -3   8   58.49    2.71
   1  -3   8   60.97    2.68
   1  -3   8   63.21    2.85
  -1   3  -9  347.45    6.34
   1  -3   9  347.03    5.39
   1  -3   9  357.37    5.95
  -1   3  -9  343.56    5.86
  -1   3  -9  356.36    6.22
   1  -3   9  361.33    6.36
  -1   3  -9  356.82    6.44
   1  -3   9  353.50    6.14
   1  -3   9  359.66    6.40
  -1   3  -9  358.83    6.67
   1  -3  10   57.27    2.12
   1  -3  10   60.19    2.29
  -1   3 -10   60.45    2.31
   1  -3  10   61.92    2.29
  -1   3 -10   61.21    2.18
  -1   3 -10   60.77    2.21
  -1   3 -10   63.06    2.11
   1  -3  10   62.18    2.12
  -1   3 -10   59.45    2.35
  -1   3 -11   32.17    1.28
   1  -3  11   33.09    1.30
  -1   3 -11   30.04    1.10
   1  -3  11   33.93    1.29
  -1   3 -11   33.47    1.30
   1  -2 -13   66.53    1.93
  -1   2  13   64.57    1.94
  -1   2  13   65.61    1.85
   1  -2 -13   65.37    1.86
   1  -2 -13   63.29    1.91
   1  -2 -12  285.43    5.16
  -1   2  12  289.54    5.04
  -1   2  12  282.99    5.18
  -1   2  12  290.64    4.94
   1  -2 -12  281.70    4.67
   1  -2 -12  286.73    5.10
   1  -2 -12  286.05    5.17
  -1   2  12  285.64    4.89
  -1   2  11    0.31    0.46
   1  -2 -11    0.33    0.37
   1  -2 -11    0.71    0.48
   1  -2 -11    0.56    0.57
  -1   2  11    0.60    0.55
  -1   2  11    0.24    0.49
  -1   2  11    0.81    0.59
   1  -2 -11    0.79    0.41
   1  -2 -11    0.61    0.52
   1  -2 -11    0.41    0.56
  -1   2  10  195.14    5.08
   1  -2 -10  187.27    4.66
   1  -2 -10  198.40    5.20
  -1   2  10  190.79    5.13
  -1   2  10  192.49    5.07
  -1   2  10  194.22    5.03
   1  -2 -10  192.06    5.15
   1  -2 -10  199.62    4.93
   1  -2 -10  204.73    5.20
   1  -2 -10  193.15    4.74
   1  -2  -9    5.17    0.88
  -1   2   9    5.13    1.41
  -1   2   9    3.20    0.78
   1  -2  -9    2.24    0.67
  -1   2   9    1.74    0.62
   1  -2  -9   -0.16    0.51
   1  -2  -9    5.75    0.90
   1  -2  -9    2.14    0.61
  -1   2   9    3.19    0.78
   1  -2  -9    2.71    0.65
  -1   2   9    4.66    1.48
   1  -2  -9    3.09    0.71
  -1   2   9    2.81    0.75
  -1   2   8  262.52    9.60
  -1   2   8  266.93    5.69
  -1   2   8  271.16    9.51
   1  -2  -8  280.71    9.81
  -1   2   8  280.28    9.58
  -1   2   8  261.36    5.60
   1  -2  -8  271.10    9.90
  -1   2   8  280.91    9.66
   1  -2  -8  271.00    5.77
   1  -2  -8  272.65    5.76
  -1   2   8  274.19    9.55
  -1   2   8  278.16    9.64
   1  -2  -8  272.74    9.94
  -1   2   8  265.71    9.52
   1  -2  -8  269.07    8.63
   1  -2  -8  272.42   10.54
  -1   2   8  272.89    5.80
   1  -2  -8  280.84   10.49
   1  -2  -8  270.94    9.71
   1  -2  -8  258.04    8.97
   1  -2  -8  261.62    5.41
   1  -2  -8  265.72    5.46
   1  -2  -8  274.86    9.73
  -1   2   8  264.03    9.38
  -1   2   7  494.92   11.78
   1  -2  -7  511.88   11.79
  -1   2   7  511.19   12.06
  -1   2   7  502.13   11.86
   1  -2  -7  519.92   12.63
  -1   2   7  474.61   10.71
   1  -2  -7  495.03   10.85
   1  -2  -7  493.14   12.03
  -1   2   7  479.96   11.44
   1  -2  -7  505.08   12.28
   1  -2  -7  501.86   13.04
  -1   2   7  500.15   11.85
  -1   2   7  513.30   11.98
  -1   2   7  507.63   12.33
   1  -2  -7  485.82   12.33
   1  -2  -7  518.68   12.28
   1  -2  -6  325.68    9.22
   1  -2  -6  328.33    8.92
  -1   2   6  318.41    8.61
   1  -2  -6  317.04    7.99
  -1   2   6  323.38    8.73
   1  -2  -6  321.24    8.81
   1  -2  -6  336.72    8.94
  -1   2   6  339.63    8.93
  -1   2   6  330.48    8.59
   1  -2  -6  326.13    9.01
   1  -2  -6  321.92    9.72
  -1   2   6  324.45    8.97
  -1   2   6  310.70    8.07
   1  -2  -6  296.77    8.76
   1  -2  -6  328.62    8.76
  -1   2   6  333.53    8.81
  -1   2   6  333.27    8.80
  -1   2   6  326.96    8.75
  -1   2   5 5229.24   30.76
   1  -2  -5 5360.71   32.47
   1  -2  -5 4984.60   28.86
  -1   2   5 5431.72   31.84
   1  -2  -5 5121.37   32.33
   1  -2  -5 5001.68   32.81
  -1   2   5 5367.47   31.94
  -1   2   5 5373.95   32.00
  -1   2   5 5397.88   31.98
   1  -2  -5 5403.30   32.37
   1  -2  -5 5317.37   32.22
  -1   2   5 5345.76   31.95
   1  -2  -5 5384.10   32.58
   1  -2  -5 5314.30   27.48
  -1   2   5 5198.85   30.94
  -1   2   5 5217.86   32.70
   1  -2  -5 5216.24   33.68
  -1   2   5 5398.77   32.18
   1  -2  -5 5235.48   35.56
   1  -2  -4  313.35    7.44
   1  -2  -4  300.47    6.43
  -1   2   4  305.03    6.88
   1  -2  -4  311.18    7.10
  -1   2   4  301.57    6.83
  -1   2   4  291.96    6.81
   1  -2  -4  302.62    6.94
   1  -2  -4  293.84    6.15
   1  -2  -4  309.66    7.18
  -1   2   4  303.20    7.04
   1  -2  -4  282.01    7.49
  -1   2   4  311.22    6.96
  -1   2   4  294.10    6.99
   1  -2  -4  295.59    7.08
  -1   2   4  300.30    6.83
  -1   2   4  300.82    7.00
   1  -2  -4  311.08    7.03
  -1   2   4  300.17    6.69
   1  -2  -4  304.57    7.37
  -1   2   3 1700.58   14.71
   1  -2  -3 1690.78   14.88
  -1   2   3 1709.29   14.78
  -1   2   3 1648.31   14.52
   1  -2  -3 1719.04   14.08
  -1   2   3 1688.83   14.76
   1  -2  -3 1667.22   15.32
   1  -2  -3 1694.48   15.81
  -1   2   3 1711.30   14.87
   1  -2  -3 1641.31   14.54
  -1   2   3 1693.94   14.72
   1  -2  -3 1660.78   13.93
  -1   2   3 1643.16   14.81
  -1   2   3 1624.59   14.20
   1  -2  -3 1706.31   14.80
   1  -2  -3 1714.38   15.76
  -1   2   3 1676.57   14.90
   1  -2  -3 1735.75   15.95
   1  -2  -3 1749.58   15.24
   1  -2  -2  312.13    3.26
   1  -2  -2  310.98    5.77
  -1   2   2  324.99    5.97
  -1   2   2  321.17    5.94
  -1   2   2  326.05    5.95
   1  -2  -2  331.93    6.47
   1  -2  -2  317.78    5.87
   1  -2  -2  318.35    6.21
   1  -2  -2  308.89    5.61
  -1   2   2  321.65    6.08
  -1   2   2  315.36    5.96
   1  -2  -2  309.73    5.86
   1  -2  -2  306.18    6.29
   1  -2  -2  299.84    3.47
   1  -2  -2  318.43    6.02
   1  -2  -2  301.88    6.20
  -1   2   2  294.08    5.88
   1  -2  -2  322.81    6.02
  -1   2   2  327.28    5.69
  -1   2   2  330.01    6.00
  -1   2   2  334.26    6.05
  -1   2   1   21.14    1.54
   1  -2  -1   19.34    1.52
  -1   2   1   20.21    1.50
   1  -2  -1   20.71    1.49
   1  -2  -1   20.93    1.47
   1  -2  -1   19.42    1.58
  -1   2   1   22.29    1.53
   1  -2  -1   20.34    1.59
  -1   2   1   20.65    1.49
   1  -2  -1   20.85    1.47
   1  -2  -1   19.95    1.49
  -1   2   1   19.85    1.26
  -1   2   1   21.87    1.51
  -1   2   1   20.41    1.47
  -1   2   1   21.40    1.50
   1  -2  -1   20.58    1.56
   1  -2  -1   18.99    0.94
  -1   2   1   17.79    1.38
   1  -2  -1   21.42    1.50
  -1   2   0  485.23    7.28
   1  -2   0  501.05    7.06
  -1   2   0  504.44    7.07
   1  -2   0  481.10    7.45
  -1   2   0  528.88    7.43
  -1   2   0  521.81    7.19
  -1   2   0  513.22    7.12
   1  -2   0  506.95    7.10
  -1   2   0  504.71    6.55
   1  -2   0  515.84    7.26
   1  -2   0  508.22    5.90
   1  -2   0  513.14    7.90
   1  -2   0  532.45    7.24
   1  -2   0  517.26    7.44
  -1   2   0  498.40    7.11
  -1   2   0  517.91    6.84
   1  -2   0  504.41    5.48
  -1   2   0  527.38    6.60
  -1   2  -1  479.33    5.63
  -1   2  -1  514.15    7.77
   1  -2   1  501.31    6.27
   1  -2   1  484.78    5.29
  -1   2  -1  494.55    6.88
   1  -2   1  480.35    7.36
   1  -2   1  509.94    8.30
   1  -2   1  485.02    7.47
   1  -2   1  466.85    7.21
  -1   2  -1  513.16    7.48
   1  -2   1  469.59    7.49
  -1   2  -1  499.35    7.49
   1  -2   1  488.63    6.97
   1  -2   1  470.66    7.26
  -1   2  -1  476.76    7.51
  -1   2  -1  505.66    7.48
  -1   2  -1  508.94    7.50
  -1   2  -1  480.94    7.69
  -1   2  -1  522.37    7.67
   1  -2   1  487.85    7.35
   1  -2   2 1341.62   13.46
  -1   2  -2 1348.80   13.82
   1  -2   2 1325.94   13.23
   1  -2   2 1305.23    6.41
   1  -2   2 1403.20   14.83
  -1   2  -2 1435.70   13.62
   1  -2   2 1343.50   13.39
  -1   2  -2 1320.34   13.72
  -1   2  -2 1516.57   14.47
   1  -2   2 1390.24   13.41
   1  -2   2 1319.00   13.16
   1  -2   2 1331.68   13.26
  -1   2  -2 1469.09   13.17
  -1   2  -2 1325.80   14.04
  -1   2  -2 1375.31   13.43
  -1   2  -2 1383.46   13.45
   1  -2   2 1387.94   12.18
  -1   2  -2 1386.31   13.68
   1  -2   2 1387.17    9.82
   1  -2   2 1403.24   14.00
  -1   2  -3   15.71    1.72
   1  -2   3   16.62    1.70
  -1   2  -3   17.50    1.79
  -1   2  -3   15.38    1.62
   1  -2   3   18.38    1.83
   1  -2   3   18.27    1.70
   1  -2   3   15.48    1.68
  -1   2  -3   17.61    1.69
  -1   2  -3   14.67    1.64
  -1   2  -3   17.47    1.83
   1  -2   3   16.59    1.66
   1  -2   3   14.93    1.60
   1  -2   3   17.74    1.74
  -1   2  -3   16.24    1.79
   1  -2   3   17.74    1.31
  -1   2  -4  195.07    6.38
   1  -2   4  192.35    6.12
   1  -2   4  186.20    6.31
   1  -2   4  190.59    6.19
   1  -2   4  194.52    6.14
  -1   2  -4  187.10    6.09
  -1   2  -4  186.27    6.07
   1  -2   4  174.76    5.79
   1  -2   4  192.01    6.08
  -1   2  -4  185.02    6.02
  -1   2  -4  189.54    6.45
  -1   2  -4  174.52    6.09
   1  -2   4  189.48    6.07
  -1   2  -4  191.42    6.11
  -1   2  -4  177.96    5.93
   1  -2   4  186.97    4.84
   1  -2   4  194.09    6.14
   1  -2   5  348.65    9.12
  -1   2  -5  360.11    9.57
  -1   2  -5  357.41    9.27
  -1   2  -5  367.79    9.42
  -1   2  -5  369.80    9.26
   1  -2   5  362.11    9.28
   1  -2   5  359.72    9.39
  -1   2  -5  357.43    9.25
  -1   2  -5  345.25    9.68
   1  -2   5  361.19    9.25
   1  -2   5  352.45    9.67
  -1   2  -5  360.89    9.60
   1  -2   5  353.44    9.12
   1  -2   5  331.07    8.93
  -1   2  -5  350.01    8.00
  -1   2  -5  338.72    9.01
   1  -2   5  352.54    9.17
   1  -2   5  363.65    9.27
  -1   2  -5  364.71    9.39
  -1   2  -6  292.10    9.48
   1  -2   6  286.46    9.20
   1  -2   6  270.65    8.92
   1  -2   6  285.69    8.98
   1  -2   6  290.66    9.12
  -1   2  -6  297.26    9.30
   1  -2   6  274.06    9.42
  -1   2  -6  286.34    9.02
   1  -2   6  270.12    8.78
  -1   2  -6  294.82    9.80
  -1   2  -6  283.40    9.05
   1  -2   6  288.61    9.04
  -1   2  -6  293.05    9.26
   1  -2   6  288.32    9.04
  -1   2  -6  280.44    9.21
  -1   2  -6  285.69    9.13
   1  -2   6  278.46    8.76
   1  -2   7  543.17    8.11
   1  -2   7  477.93   12.67
   1  -2   7  482.26   12.78
   1  -2   7  483.08   12.24
   1  -2   7  500.57   13.02
   1  -2   7  502.14    7.78
   1  -2   7  475.25   12.66
  -1   2  -7  500.38    8.08
  -1   2  -7  501.43    7.70
   1  -2   7  490.49    7.16
   1  -2   7  475.05   12.81
   1  -2   7  504.87    7.98
  -1   2  -7  504.36   12.88
   1  -2   7  480.94   12.97
  -1   2  -7  513.99   13.17
  -1   2  -7  502.45   13.15
   1  -2   7  488.31   13.63
  -1   2  -7  462.93   12.08
  -1   2  -7  494.07   13.28
  -1   2  -7  492.25    7.89
  -1   2  -7  497.82   13.82
   1  -2   7  500.01    7.77
  -1   2  -7  531.28   13.51
   1  -2   7  473.62   12.60
  -1   2  -7  501.26   13.10
  -1   2  -7  505.30   13.23
  -1   2  -8  118.49    4.02
  -1   2  -8  118.15    3.89
   1  -2   8  116.77    3.90
   1  -2   8  117.15    3.99
  -1   2  -8  127.94    4.25
   1  -2   8  118.68    3.91
   1  -2   8  116.86    3.86
  -1   2  -8  120.28    4.20
  -1   2  -9   50.41    2.57
  -1   2  -9   48.54    2.56
   1  -2   9   54.41    2.68
   1  -2   9   51.66    2.57
   1  -2   9   51.12    2.51
   1  -2   9   54.97    2.64
  -1   2  -9   48.88    2.65
  -1   2  -9   51.73    2.55
  -1   2  -9   49.54    2.67
   1  -2  10  818.13    9.29
  -1   2 -10  842.01    9.60
   1  -2  10  841.75    9.21
   1  -2  10  839.91    9.35
  -1   2 -10  835.90    9.81
   1  -2  10  843.86    9.58
  -1   2 -10  820.82    9.06
  -1   2 -10  838.09    9.80
  -1   2 -11   91.75    2.49
  -1   2 -11   95.03    2.70
   1  -2  11   95.46    2.65
  -1   2 -11   93.32    2.76
   1  -2  11   94.03    2.69
  -1   2 -11   90.88    2.67
   1  -2  11   90.92    2.60
   1  -2  11   92.67    2.54
  -1   2 -12   59.90    1.55
   1  -1 -13    5.94    0.63
   1  -1 -13    6.06    0.64
   1  -1 -13    5.15    0.52
  -1   1  13    5.69    0.64
  -1   1  13    6.43    0.68
   1  -1 -13    5.50    0.57
  -1   1  12    7.63    0.73
   1  -1 -12    9.38    1.01
   1  -1 -12    8.66    0.95
   1  -1 -12    8.60    0.98
  -1   1  12    8.44    0.80
  -1   1  12    7.77    0.95
   1  -1 -12    8.30    0.93
  -1   1  12    8.31    0.97
  -1   1  12    8.09    0.80
  -1   1  11   91.31    3.14
  -1   1  11   97.06    3.42
  -1   1  11   90.35    2.95
   1  -1 -11   93.55    3.39
   1  -1 -11   87.42    2.88
  -1   1  11   93.63    3.42
   1  -1 -11   92.50    3.35
   1  -1 -11   97.06    3.44
   1  -1 -11   94.06    3.30
  -1   1  11   95.71    3.18
   1  -1 -10  230.81    5.66
   1  -1 -10  234.89    4.98
  -1   1  10  225.82    5.51
   1  -1 -10  234.27    5.67
  -1   1  10  230.71    5.64
   1  -1 -10  226.17    5.44
   1  -1 -10  233.66    5.64
  -1   1  10  222.30    5.24
   1  -1 -10  225.74    5.02
  -1   1  10  219.15    4.99
  -1   1   9   62.98    2.90
  -1   1   9   55.96    2.71
   1  -1  -9   60.43    2.90
  -1   1   9   54.49    2.53
  -1   1   9   55.75    2.77
  -1   1   9   52.58    4.42
   1  -1  -9   54.81    2.78
   1  -1  -9   56.86    2.54
   1  -1  -9   56.90    2.80
  -1   1   9   60.59    4.88
   1  -1  -9   52.60    4.54
   1  -1  -9   58.15    2.77
   1  -1  -9   59.61    2.61
   1  -1  -9   55.52    2.53
  -1   1   9   57.73    2.72
   1  -1  -8    2.56    1.14
  -1   1   8    1.40    0.88
  -1   1   8    4.52    1.38
   1  -1  -8    2.13    0.60
  -1   1   8    1.47    0.96
  -1   1   8    1.85    1.01
   1  -1  -8    5.90    1.53
  -1   1   8    1.76    0.93
   1  -1  -8    3.48    1.45
  -1   1   8    3.85    1.28
  -1   1   8    1.38    0.48
   1  -1  -8    3.25    1.25
  -1   1   8    1.01    0.75
   1  -1  -8    1.87    0.97
   1  -1  -8    3.45    1.36
   1  -1  -8    3.17    1.10
   1  -1  -8    2.07    0.61
  -1   1   8    2.60    1.09
   1  -1  -8    4.56    1.38
  -1   1   7  385.85   10.34
  -1   1   7  379.04   10.52
  -1   1   7  387.16   10.32
   1  -1  -7  398.09   10.72
   1  -1  -7  369.10   11.15
   1  -1  -7  395.17   10.91
   1  -1  -7  399.54    9.85
  -1   1   7  361.47   10.00
  -1   1   7  360.94    8.54
   1  -1  -7  389.46   10.53
   1  -1  -7  400.15   11.43
  -1   1   7  359.84    9.98
  -1   1   7  383.50   10.08
   1  -1  -7  395.52   10.50
   1  -1  -7  397.78   10.66
  -1   1   7  366.43   10.14
  -1   1   7  364.27   10.07
   1  -1  -7  376.56    9.35
   1  -1  -6  112.04    5.28
   1  -1  -6  117.81    4.81
   1  -1  -6  110.15    5.49
  -1   1   6  110.83    4.89
  -1   1   6  110.90    4.43
   1  -1  -6  112.77    5.06
  -1   1   6  123.32    5.51
  -1   1   6  107.83    4.93
  -1   1   6  116.51    5.11
   1  -1  -6  113.46    4.76
  -1   1   6  109.60    4.96
   1  -1  -6  113.64    5.15
   1  -1  -6  110.83    5.47
  -1   1   6  110.29    4.97
   1  -1  -6  107.65    4.98
   1  -1  -6  114.02    5.19
  -1   1   6  114.58    5.06
  -1   1   6  113.33    5.06
  -1   1   5   26.53    2.22
   1  -1  -5   27.69    2.29
   1  -1  -5   28.70    2.37
   1  -1  -5   29.47    2.36
  -1   1   5   28.41    2.27
   1  -1  -5   30.86    2.49
   1  -1  -5   28.08    2.52
   1  -1  -5   30.96    2.45
  -1   1   5   30.90    2.37
  -1   1   5   25.66    2.18
  -1   1   5   28.54    2.29
   1  -1  -5   28.99    2.20
  -1   1   5   29.36    2.46
  -1   1   5   28.63    2.10
  -1   1   5   35.77    2.61
   1  -1  -5   31.44    2.27
   1  -1  -5   27.89    1.69
  -1   1   5   29.88    2.34
   1  -1  -5   28.45    2.33
   1  -1  -4 5758.60   21.98
   1  -1  -4 5726.90   28.97
   1  -1  -4 5673.42   28.26
   1  -1  -4 5578.04   30.81
  -1   1   4 5704.63   27.96
  -1   1   4 5759.69   27.92
  -1   1   4 5870.33   27.99
  -1   1   4 5841.82   28.13
   1  -1  -4 5606.62   28.56
  -1   1   4 5768.50   28.02
   1  -1  -4 5789.58   28.44
   1  -1  -4 5664.51   29.44
   1  -1  -4 5681.22   28.19
  -1   1   4 5633.83   27.81
   1  -1  -4 5792.15   27.00
  -1   1   4 5650.18   29.18
   1  -1  -4 5485.35   26.78
  -1   1   4 5528.69   27.52
  -1   1   4 5562.83   26.43
  -1   1   3 6788.59   26.59
  -1   1   3 6842.76   25.81
   1  -1  -3 6448.95   27.19
   1  -1  -3 6544.27   21.73
   1  -1  -3 6715.93   26.72
  -1   1   3 6851.02   26.60
   1  -1  -3 6577.83   29.60
  -1   1   3 6309.30   26.11
  -1   1   3 6874.87   27.91
  -1   1   3 6803.25   26.62
   1  -1  -3 6691.14   27.42
  -1   1   3 6866.01   26.64
  -1   1   3 6496.92   26.69
  -1   1   3 6711.51   26.31
   1  -1  -3 6827.41   26.93
  -1   1   3 6894.71   26.04
   1  -1  -3 7294.17   27.71
   1  -1  -3 7258.99   26.72
   1  -1  -3 6827.24   27.06
   1  -1  -3 6871.68   28.63
  -1   1   2 8183.47   25.53
   1  -1  -2 8184.51   25.56
  -1   1   2 8131.89   25.64
  -1   1   2 8144.89   26.04
  -1   1   1 2194.00   12.08
   1  -1  -1 2208.52   11.95
   1  -1  -1 2403.04   13.35
   1  -1  -1 2216.28   13.00
  -1   1   1 2273.33   12.07
  -1   1   1 2217.16   11.68
  -1   1   1 2245.00   11.78
  -1   1   1 2095.99   10.45
  -1   1   1 2234.77   11.73
  -1   1   1 2276.60   10.83
   1  -1  -1 2279.23    8.34
  -1   1   1 2306.40   11.91
  -1   1   1 2297.79   11.91
   1  -1  -1 2292.87   12.15
  -1   1   0 5077.99   16.84
  -1   1   0 5259.95   16.26
  -1   1   0 5018.92   16.65
  -1   1   0 5148.26   16.94
   1  -1   0 4949.74   17.10
  -1   1   0 5182.05   18.29
   1  -1   0 5115.20   13.15
  -1   1   0 5122.08   17.38
  -1   1   0 5124.67   17.23
  -1   1   0 5100.77   17.36
   1  -1   0 4978.78   19.29
   1  -1   0 5016.24   16.85
   1  -1   0 5193.02   17.24
   1  -1   0 5302.07   19.59
   1  -1   0 4897.28   17.36
   1  -1   0 4957.99   16.79
   1  -1   1    5.58    0.67
  -1   1  -1    7.17    0.73
  -1   1  -1    7.54    0.78
   1  -1   1    7.39    0.75
  -1   1  -1    8.70    0.85
   1  -1   1    6.42    0.54
  -1   1  -1    6.58    0.72
  -1   1  -1    7.06    0.73
  -1   1  -1    5.69    0.75
  -1   1  -1    7.37    0.52
   1  -1   1    9.47    0.49
   1  -1   1    7.52    0.79
   1  -1   1    8.76    0.80
   1  -1   1    7.52    0.62
   1  -1   1    7.75    0.75
  -1   1  -1    7.16    0.74
  -1   1  -1    7.65    0.67
   1  -1   1    6.88    0.90
   1  -1   1    9.37    0.83
  -1   1  -1    7.17    0.80
   1  -1   1    8.60    0.78
  -1   1  -2 1046.30    9.60
   1  -1   2 1031.11   10.06
   1  -1   2 1040.30    9.51
   1  -1   2  980.18    9.20
  -1   1  -2 1154.69   10.24
   1  -1   2  998.05    9.49
  -1   1  -2  981.31    9.82
   1  -1   2 1011.72    9.43
   1  -1   2  988.68    9.28
   1  -1   2  996.34    5.41
   1  -1   2 1026.12    6.94
  -1   1  -2 1031.42    9.75
  -1   1  -2 1058.24    9.59
  -1   1  -2 1048.69   10.16
   1  -1   2 1002.00    9.37
  -1   1  -2 1080.06    9.67
   1  -1   2  990.59    8.90
  -1   1  -2 1100.21    9.34
  -1   1  -2 1021.76    9.43
   1  -1   3 4433.11   22.46
   1  -1   3 4471.84   22.55
  -1   1  -3 4346.11   23.54
  -1   1  -3 4467.58   23.00
   1  -1   3 4393.54   24.33
   1  -1   3 4295.32   18.34
  -1   1  -3 4410.02   24.02
   1  -1   3 4477.90   22.51
  -1   1  -3 4492.64   23.54
   1  -1   3 4453.07   22.94
  -1   1  -3 4449.52   22.81
   1  -1   3 4385.67   22.31
   1  -1   3 4427.91   22.50
  -1   1  -3 4532.27   22.85
  -1   1  -3 4427.80   22.40
  -1   1  -3 4507.06   22.87
   1  -1   3 4432.45   22.61
   1  -1   4  617.99    9.76
  -1   1  -4  607.87   10.03
  -1   1  -4  612.35   10.18
   1  -1   4  598.27    9.43
  -1   1  -4  599.01    9.51
   1  -1   4  611.50   10.38
  -1   1  -4  629.68   10.00
   1  -1   4  590.27    8.13
  -1   1  -4  627.11    9.90
   1  -1   4  626.09    9.68
  -1   1  -4  612.31    9.70
   1  -1   4  609.26    9.54
   1  -1   4  600.95    9.51
  -1   1  -4  602.20    9.56
   1  -1   4  599.10    9.77
  -1   1  -4  601.59    9.32
  -1   1  -4  599.24   10.23
   1  -1   4  581.97    9.37
   1  -1   4  604.31    9.71
   1  -1   5 1419.93   16.29
   1  -1   5 1488.19   18.27
   1  -1   5 1473.45   14.77
   1  -1   5 1499.45   16.91
  -1   1  -5 1462.41   16.92
   1  -1   5 1420.17   16.51
   1  -1   5 1432.16   16.58
  -1   1  -5 1482.28   17.82
  -1   1  -5 1352.09   16.94
  -1   1  -5 1441.73   16.08
   1  -1   5 1395.84   16.75
  -1   1  -5 1451.01   16.92
   1  -1   5 1469.59   16.81
  -1   1  -5 1340.60   16.29
  -1   1  -5 1495.06   17.34
   1  -1   5 1421.25   16.47
   1  -1   5 1441.00   17.25
  -1   1  -5 1511.09   17.21
  -1   1  -5 1418.34   15.42
  -1   1  -5 1425.22   18.01
  -1   1  -6   50.88    3.63
   1  -1   6   48.98    3.35
  -1   1  -6   44.36    3.41
   1  -1   6   53.33    3.70
   1  -1   6   47.48    3.40
   1  -1   6   48.66    3.05
  -1   1  -6   46.56    3.37
  -1   1  -6   45.54    3.53
   1  -1   6   48.01    3.45
   1  -1   6   49.20    3.46
  -1   1  -6   48.98    3.52
   1  -1   6   47.70    3.42
  -1   1  -6   49.26    3.55
   1  -1   6   49.13    3.47
  -1   1  -6   49.10    3.80
  -1   1  -6   51.53    3.62
   1  -1   6   47.03    3.59
  -1   1  -6   49.74    3.22
   1  -1   6   53.08    3.86
   1  -1   7  491.05   11.95
   1  -1   7  480.46   11.85
  -1   1  -7  481.27   12.82
   1  -1   7  484.08   11.88
  -1   1  -7  503.89   12.25
  -1   1  -7  477.20   11.72
  -1   1  -7  480.96   12.00
  -1   1  -7  463.36   12.01
   1  -1   7  466.56   12.35
  -1   1  -7  484.57   12.48
   1  -1   7  462.19   11.91
   1  -1   7  479.21   11.11
  -1   1  -7  487.68   12.07
   1  -1   7  477.94   11.84
  -1   1  -7  498.25   12.38
   1  -1   7  476.63   12.76
  -1   1  -7  459.21   11.04
   1  -1   7  494.73   12.05
  -1   1  -8  557.29   13.64
  -1   1  -8  596.63   15.48
   1  -1   8  607.82   14.74
   1  -1   8  612.45    8.59
   1  -1   8  609.71    8.46
  -1   1  -8  587.67   14.37
   1  -1   8  596.47   14.31
  -1   1  -8  619.95    8.83
  -1   1  -8  606.62   14.79
  -1   1  -8  625.27   15.37
   1  -1   8  597.11   14.23
   1  -1   8  609.47   14.46
  -1   1  -8  597.52    8.99
  -1   1  -8  590.55   13.46
  -1   1  -8  622.86    9.20
  -1   1  -8  602.36   14.55
   1  -1   8  631.18    9.08
   1  -1   8  588.29   14.15
   1  -1   8  620.19    8.72
  -1   1  -8  592.91   14.60
  -1   1  -8  621.90   14.83
   1  -1   8  623.92    8.93
   1  -1   8  599.50   14.34
  -1   1  -9  341.55    6.28
   1  -1   9  335.50    6.46
   1  -1   9  320.12    6.21
   1  -1   9  332.90    6.45
  -1   1  -9  340.35    6.68
   1  -1   9  338.11    6.84
   1  -1   9  328.24    6.63
  -1   1  -9  333.79    6.85
  -1   1  -9  336.99    6.89
  -1   1 -10   52.82    2.66
  -1   1 -10   50.04    2.38
  -1   1 -10   51.77    2.31
  -1   1 -10   51.24    2.63
   1  -1  10   54.65    2.64
   1  -1  10   51.54    2.63
  -1   1 -10   49.97    2.49
  -1   1 -10   50.17    2.59
   1  -1  10   49.41    2.34
   1  -1  10   51.99    2.46
  -1   1 -11  101.11    3.11
   1  -1  11  109.85    3.34
  -1   1 -11  100.64    3.28
   1  -1  11  109.89    3.37
  -1   1 -11  108.28    3.35
  -1   1 -11  108.44    3.28
   1  -1  11  107.41    2.94
   1  -1  11  101.42    3.00
  -1   1 -12  116.58    2.57
   1  -1  12  121.05    2.79
  -1   1 -12  124.82    2.85
  -1   1 -12  122.56    2.81
  -1   1 -12  117.55    2.53
   1  -1  12  121.48    2.83
   1  -1  12  114.51    2.39
  -1   0  13  155.29    2.52
  -1   0  13  144.25    2.46
   1   0 -13  147.13    2.32
   1   0 -13  152.42    2.51
   1   0 -12   51.92    2.05
  -1   0  12   49.49    1.80
  -1   0  12   53.76    2.14
   1   0 -12   49.46    2.07
   1   0 -12   49.01    1.98
  -1   0  12   52.28    2.11
   1   0 -12   51.31    1.97
   1   0 -12   48.66    1.76
  -1   0  11   52.17    2.52
  -1   0  11   46.83    2.17
   1   0 -11   48.03    2.42
   1   0 -11   50.27    2.26
   1   0 -11   47.81    2.37
   1   0 -11   47.38    2.32
   1   0 -11   47.04    2.35
  -1   0  11   47.00    1.98
  -1   0  11   48.21    2.39
   1   0 -10   15.15    1.49
   1   0 -10   13.97    1.43
   1   0 -10   15.94    1.44
  -1   0  10   15.23    1.38
  -1   0  10   15.59    1.50
   1   0 -10   14.98    1.46
  -1   0  10   14.98    1.51
   1   0 -10   15.57    1.54
  -1   0  10   14.13    1.25
  -1   0   9  163.01    4.71
   1   0  -9  165.70    4.83
   1   0  -9  162.87    4.75
   1   0  -9  168.05    4.82
  -1   0   9  162.97    4.69
   1   0  -9  165.90    4.77
  -1   0   9  172.17    4.51
  -1   0   9  161.88    4.27
   1   0  -9  158.64    4.46
  -1   0   9  163.13    4.48
  -1   0   8    0.01    0.66
   1   0  -8    0.46    0.87
   1   0  -8    2.30    0.67
  -1   0   8    1.29    0.77
  -1   0   8    1.79    0.57
  -1   0   8    1.15    0.75
   1   0  -8    5.50    0.85
  -1   0   8    3.44    1.13
   1   0  -8    0.83    0.51
   1   0  -8    2.60    0.62
   1   0  -8    1.41    0.59
   1   0  -8   -0.21    0.75
   1   0  -8    2.56    1.24
   1   0  -8    2.51    1.26
   1   0  -8    3.46    0.77
   1   0  -8    3.24    1.31
   1   0  -8    2.06    1.13
  -1   0   8    1.62    0.53
  -1   0   8    1.59    0.81
   1   0  -8    1.50    1.04
  -1   0   8    3.14    1.13
  -1   0   8    1.42    0.58
  -1   0   8    2.18    1.04
  -1   0   7   -0.32    0.63
   1   0  -7    1.96    0.89
  -1   0   7    3.41    1.14
   1   0  -7    1.64    1.06
   1   0  -7    1.72    0.82
  -1   0   7    2.57    0.97
   1   0  -7    2.66    1.11
  -1   0   7    1.68    0.86
  -1   0   7    1.00    0.82
   1   0  -7    2.81    1.02
  -1   0   7    2.40    1.03
  -1   0   7    2.38    0.92
  -1   0   7    4.16    1.30
   1   0  -7    2.46    1.16
  -1   0   7    1.02    0.83
   1   0  -7    2.55    1.02
   1   0  -7    0.52    0.76
   1   0  -7    2.80    1.08
   1   0  -6    2.03    0.79
  -1   0   6    1.71    0.77
  -1   0   6    3.38    1.02
  -1   0   6    3.44    1.09
   1   0  -6    2.87    1.12
  -1   0   6    2.78    0.98
  -1   0   6    2.83    1.03
  -1   0   6    1.53    0.94
   1   0  -6    0.63    0.59
  -1   0   6    4.10    1.18
   1   0  -6    3.13    1.08
   1   0  -6    2.06    0.86
   1   0  -6    1.94    0.56
   1   0  -6    3.24    1.03
   1   0  -6    3.25    1.05
  -1   0   6    3.96    1.07
  -1   0   6    1.93    0.82
   1   0  -6    3.83    1.10
  -1   0   6    3.56    0.82
   1   0  -6    1.99    1.01
   1   0  -5   94.55    4.58
  -1   0   5   99.48    4.24
  -1   0   5  100.75    4.27
   1   0  -5   97.28    4.56
   1   0  -5   99.60    4.06
  -1   0   5  101.13    4.04
   1   0  -5   97.14    3.55
  -1   0   5   99.43    3.61
   1   0  -5   99.55    3.92
  -1   0   5   99.65    4.26
   1   0  -5  102.71    4.52
   1   0  -5   99.51    4.31
  -1   0   5   95.90    4.36
   1   0  -5   93.58    3.96
   1   0  -5   98.19    4.33
  -1   0   5   98.65    4.20
   1   0  -5  101.97    4.39
  -1   0   5  101.87    4.29
  -1   0   5   97.62    4.21
  -1   0   5   94.16    4.29
  -1   0   4   45.50    2.53
   1   0  -4   44.24    2.33
   1   0  -4   44.71    2.55
   1   0  -4   45.54    1.59
   1   0  -4   44.47    2.76
   1   0  -4   42.93    2.35
   1   0  -4   46.56    2.84
  -1   0   4   43.95    2.62
  -1   0   4   45.00    2.53
  -1   0   4   42.34    2.14
  -1   0   4   44.13    2.50
   1   0  -4   47.29    2.69
   1   0  -4   45.33    2.12
  -1   0   4   46.71    2.56
   1   0  -4   47.22    2.48
  -1   0   4   44.94    2.35
   1   0  -4   46.33    2.61
  -1   0   4   43.61    2.59
  -1   0   4   45.88    2.53
  -1   0   4   44.12    2.48
   1   0  -4   43.78    2.52
   1   0  -3 2246.71   15.45
   1   0  -3 2344.84   13.09
  -1   0   3 2399.92   15.81
  -1   0   3 2322.98   15.09
   1   0  -3 2469.90    9.57
  -1   0   3 2367.11   14.19
  -1   0   3 2365.71   14.23
   1   0  -3 2300.71   14.81
  -1   0   3 2352.23   16.10
   1   0  -3 2125.47    6.13
  -1   0   3 2211.73   14.93
  -1   0   3 2352.58   15.28
   1   0  -3 2175.62   15.11
   1   0  -3 2292.00   14.42
  -1   0   3 2282.91   15.11
   1   0  -3 2153.03   13.93
   1   0  -3 2243.52   15.23
   1   0  -3 2312.43   16.80
   1   0  -3 2224.72   15.73
  -1   0   3 2251.34   14.96
   1   0  -3 2225.68   15.23
  -1   0   3 2210.07   14.92
  -1   0   2 1078.35    8.46
  -1   0   2 1099.41    8.68
   1   0  -2 1049.38    8.11
   1   0  -2 1068.84    4.83
  -1   0   2 1050.50    8.37
  -1   0   2 1065.58    8.43
  -1   0   2 1026.15    7.46
  -1   0   2 1086.87    9.18
   1   0  -2 1032.33    4.55
  -1   0   2 1058.47    8.44
   1   0  -2 1082.95    8.36
  -1   0   2 1060.67    8.41
  -1   0   2 1049.12    8.43
   1   0  -2 1062.21    7.47
  -1   0   2 1050.33    8.37
   1   0  -2 1022.11    8.39
  -1   0   1 1795.01    8.40
  -1   0   1 1890.21    9.35
  -1   0   1 1832.64    8.48
   1   0  -1 1826.88    6.92
  -1   0   1 1844.91    8.44
   1   0  -1 1907.88    8.64
  -1   0   1 1882.20    9.53
   1   0  -1 1854.73    8.77
  -1   0   1 1844.00    8.60
  -1   0   1 1828.26    8.43
   1   0  -1 1861.42    6.11
  -1   0   1 1869.29    8.61
   1   0  -1 1884.76    7.29
  -1   0   1 1987.32    6.95
  -1   0   1 1905.65    8.26
  -1   0   0 1368.69    5.07
   1   0   0 1307.85    6.64
  -1   0   0 1338.64    5.09
  -1   0   0 1402.29    5.18
   1   0   0 1379.00    5.15
   1   0   0 1378.54    5.46
   1   0   0 1406.38    5.16
  -1   0   0 1385.00    5.26
   1   0   0 1358.53    5.19
  -1   0   0 1358.87    5.14
  -1   0   0 1403.84    3.85
  -1   0   0 1367.24    5.10
   1   0   0 1365.83    5.10
   1   0   0 1431.76    6.75
  -1   0   0 1388.37    6.64
   1   0   0 1366.67    5.27
  -1   0   0 1330.86    5.10
  -1   0  -1   56.88    1.28
   1   0   1   59.46    1.37
  -1   0  -1   56.80    1.27
   1   0   1   56.54    1.41
   1   0   1   53.95    1.25
   1   0   1   56.41    1.28
  -1   0  -1   55.50    1.28
   1   0   1   60.08    1.66
   1   0   1   64.17    1.77
  -1   0  -1   53.20    1.33
   1   0   1   55.09    1.25
   1   0   1   56.23    1.30
  -1   0  -1   55.53    1.58
  -1   0  -1   54.68    1.31
   1   0   1   53.74    1.25
   1   0   1   55.31    1.27
  -1   0  -1   54.78    1.25
  -1   0  -1   59.87    0.99
  -1   0  -1   57.67    1.40
   1   0   2 2470.64   11.62
  -1   0  -2 2436.13   12.39
   1   0   2 2457.85   10.31
   1   0   2 2400.31    9.52
  -1   0  -2 2425.92   11.66
   1   0   2 2385.42   11.48
   1   0   2 2399.64   13.72
  -1   0  -2 2460.22   11.18
  -1   0  -2 2436.81   11.98
  -1   0  -2 2391.61   11.61
  -1   0  -2 2423.24   12.34
   1   0   2 2394.25   11.41
   1   0   2 2417.89   12.63
   1   0   2 2545.09   13.16
   1   0   2 2407.15   11.54
   1   0   2 2378.96   11.38
  -1   0  -2 2437.00   11.53
  -1   0  -2 2462.94   11.78
   1   0   2 2412.15   11.63
   1   0   3  201.79    3.91
  -1   0  -3  199.72    4.18
   1   0   3  209.94    4.38
   1   0   3  207.77    4.81
   1   0   3  204.79    4.20
  -1   0  -3  210.33    3.93
   1   0   3  203.79    4.16
  -1   0  -3  203.16    4.37
  -1   0  -3  191.19    4.62
  -1   0  -3  199.48    4.17
   1   0   3  201.42    4.14
   1   0   3  207.27    4.22
  -1   0  -3  196.28    4.22
  -1   0  -3  202.91    4.27
   1   0   3  200.54    4.14
   1   0   3  198.03    4.51
  -1   0  -3  204.18    4.20
   1   0   3  202.89    4.16
  -1   0  -3  198.11    4.41
  -1   0  -4  256.83    5.63
   1   0   4  262.95    5.49
   1   0   4  240.98    5.20
  -1   0  -4  242.81    5.50
   1   0   4  242.61    5.41
  -1   0  -4  232.89    5.77
  -1   0  -4  236.26    5.51
   1   0   4  244.30    5.49
  -1   0  -4  255.89    5.69
   1   0   4  262.60    6.28
  -1   0  -4  236.81    5.38
  -1   0  -4  260.54    5.58
  -1   0  -4  234.09    5.65
  -1   0  -4  252.32    6.09
   1   0   4  234.68    5.38
   1   0   4  242.53    5.46
   1   0   4  250.09    5.55
   1   0   4  243.17    5.95
  -1   0  -4  276.06    5.33
   1   0   4  239.46    5.46
   1   0   5  296.11    6.89
   1   0   5  285.19    6.50
   1   0   5  293.83    7.57
  -1   0  -5  288.68    6.82
   1   0   5  298.57    6.91
  -1   0  -5  297.10    7.48
   1   0   5  292.10    6.85
   1   0   5  288.68    6.82
   1   0   5  286.48    6.44
  -1   0  -5  287.06    7.32
  -1   0  -5  285.18    6.78
   1   0   5  288.60    6.80
  -1   0  -5  287.73    6.64
  -1   0  -5  299.12    7.00
  -1   0  -5  294.43    7.17
   1   0   5  286.43    7.40
   1   0   5  289.90    6.83
  -1   0  -5  295.41    7.04
  -1   0  -5  297.22    7.00
  -1   0  -6 2314.86   22.10
   1   0   6 2360.83   22.05
   1   0   6 2280.58   21.77
  -1   0  -6 2257.32   23.13
  -1   0  -6 2253.45   23.13
  -1   0  -6 2289.67   22.41
  -1   0  -6 2213.72   20.65
  -1   0  -6 2268.06   21.20
  -1   0  -6 2246.39   21.86
   1   0   6 2303.78   21.82
  -1   0  -6 2308.07   22.92
   1   0   6 2239.18   19.70
   1   0   6 2221.63   23.49
   1   0   6 2115.80   22.87
   1   0   6 2209.15   20.39
  -1   0  -6 2205.56   19.80
   1   0   6 2339.34   21.97
   1   0   6 2304.63   21.83
   1   0   7  206.12    6.50
  -1   0  -7  202.15    7.73
   1   0   7  199.56    7.17
  -1   0  -7  203.56    7.45
  -1   0  -7  200.29    7.32
   1   0   7  204.33    7.27
  -1   0  -7  196.68    6.83
   1   0   7  186.98    6.61
   1   0   7  196.78    7.15
  -1   0  -7  202.08    7.32
  -1   0  -7  193.61    7.53
  -1   0  -7  184.34    6.69
  -1   0  -7  199.08    7.46
   1   0   7  203.89    7.29
   1   0   7  196.45    7.31
   1   0   7  200.24    7.18
  -1   0  -7  187.16    7.60
  -1   0  -7  192.25    6.52
  -1   0  -8  869.27   17.10
   1   0   8  845.01   16.19
  -1   0  -8  848.09   10.21
   1   0   8  835.83   10.09
  -1   0  -8  818.91   16.26
  -1   0  -8  805.54   17.23
  -1   0  -8  856.07   10.51
   1   0   8  837.12    9.82
   1   0   8  839.48   16.51
   1   0   8  840.38   16.19
  -1   0  -8  830.89   17.18
   1   0   8  808.49    9.41
   1   0   8  835.41   16.17
  -1   0  -8  821.00   15.08
   1   0   8  827.94   10.10
   1   0   8  858.34   10.38
   1   0   8  871.33   16.44
  -1   0  -8  836.09    9.89
   1   0   8  863.52   16.44
  -1   0  -8  820.91   16.28
  -1   0  -8  851.27   16.74
  -1   0  -8  854.67   17.29
   1   0   9  308.39    6.03
  -1   0  -9  311.74    6.26
   1   0   9  297.81    6.43
   1   0   9  299.17    5.82
   1   0   9  305.58    6.40
  -1   0  -9  309.90    6.42
  -1   0  -9  311.44    6.64
  -1   0  -9  307.49    5.93
   1   0   9  314.30    6.47
  -1   0  -9  313.26    6.56
   1   0   9  302.30    6.19
  -1   0 -10   60.94    2.76
  -1   0 -10   62.88    2.89
   1   0  10   60.05    2.53
  -1   0 -10   61.78    2.94
   1   0  10   63.93    3.01
  -1   0 -10   61.78    2.98
   1   0  10   59.31    2.84
  -1   0 -10   60.00    2.57
   1   0  10   62.53    2.74
   1   0  10   61.41    2.67
   1   0  10   62.24    2.85
   1   0  11   48.03    2.14
  -1   0 -11   43.99    2.26
  -1   0 -11   46.07    2.40
   1   0  11   51.88    2.53
  -1   0 -11   50.93    2.42
   1   0  11   42.75    2.13
  -1   0 -11   45.33    2.15
   1   0  11   51.45    2.48
  -1   0 -11   48.80    2.40
   1   0  11   45.84    2.10
  -1   0 -12    0.31    0.35
  -1   0 -12    0.01    0.44
   1   0  12    0.38    0.43
   1   0  12    0.24    0.31
   1   0  12    0.40    0.46
  -1   0 -12    0.31    0.41
  -1   0 -12   -0.08    0.42
   1   0  12    0.10    0.31
  -1   0 -12    0.53    0.39
   1   0  13    2.06    0.43
  -1   0 -13    2.24    0.42
   1   0  13    2.32    0.42
  -1   0 -13    2.07    0.40
   1   1 -12    0.12    0.27
   1   1 -12    0.15    0.39
  -1  -1  12    0.31    0.33
  -1  -1  12    0.53    0.40
   1   1 -12    0.51    0.37
   1   1 -12    0.77    0.47
  -1  -1  12    0.08    0.30
  -1  -1  12    0.17    0.37
   1   1 -12    0.60    0.32
   1   1 -11    1.29    0.52
  -1  -1  11    0.58    0.47
  -1  -1  11    0.51    0.47
   1   1 -11    1.47    0.53
  -1  -1  11    0.52    0.49
   1   1 -11    1.01    0.56
  -1  -1  11    0.92    0.46
   1   1 -11    1.23    0.58
   1   1 -11    0.59    0.50
  -1  -1  10   29.51    1.94
   1   1 -10   30.82    2.02
   1   1 -10   30.98    1.96
   1   1 -10   29.83    2.03
   1   1 -10   29.85    2.05
   1   1 -10   30.54    2.00
  -1  -1  10   30.91    2.02
  -1  -1  10   30.70    1.96
  -1  -1  10   30.50    1.86
  -1  -1   9   13.40    1.36
  -1  -1   9   12.80    1.38
  -1  -1   9   12.35    1.27
   1   1  -9   14.89    1.48
   1   1  -9   16.11    1.51
   1   1  -9   13.75    1.47
  -1  -1   9   13.27    1.40
   1   1  -9   12.57    1.38
   1   1  -9   15.68    1.52
   1   1  -8  391.16   11.43
  -1  -1   8  381.04   11.74
   1   1  -8  375.93    7.12
   1   1  -8  371.10   12.65
   1   1  -8  412.80   12.39
  -1  -1   8  363.76   11.37
   1   1  -8  378.80    7.11
  -1  -1   8  374.92    6.73
   1   1  -8  394.12   12.24
   1   1  -8  381.62    7.10
  -1  -1   8  385.84    6.67
   1   1  -8  412.05   12.68
   1   1  -8  367.05   10.97
  -1  -1   8  396.25   11.96
   1   1  -8  371.56    6.90
  -1  -1   8  367.37   12.12
  -1  -1   8  363.54   11.38
   1   1  -8  392.20   12.09
  -1  -1   8  392.58   11.84
  -1  -1   8  394.90    7.07
  -1  -1   8  384.34   11.69
  -1  -1   8  386.62   11.79
   1   1  -8  385.71   12.55
  -1  -1   8  362.92   11.72
  -1  -1   8  390.25    7.04
   1   1  -8  378.91    7.00
   1   1  -7  456.56   12.75
  -1  -1   7  454.29   11.80
  -1  -1   7  444.01   11.54
  -1  -1   7  457.15   11.91
   1   1  -7  475.10   12.30
  -1  -1   7  458.23   11.84
   1   1  -7  444.92   12.02
  -1  -1   7  465.08   11.95
   1   1  -7  457.93   12.04
  -1  -1   7  462.00   12.15
   1   1  -7  472.15   12.72
   1   1  -7  445.39   12.83
   1   1  -7  450.22   11.25
  -1  -1   7  422.47   11.34
  -1  -1   7  427.13   12.06
  -1  -1   7  456.78   11.85
   1   1  -7  425.45   11.14
  -1  -1   6   88.74    4.75
   1   1  -6   87.71    4.98
   1   1  -6   87.60    4.77
   1   1  -6   82.12    4.38
  -1  -1   6   86.06    4.62
  -1  -1   6   86.36    4.67
   1   1  -6   89.43    4.27
  -1  -1   6   88.41    4.75
  -1  -1   6   84.09    4.59
   1   1  -6   90.56    4.88
   1   1  -6   84.55    4.97
   1   1  -6   86.73    4.82
  -1  -1   6   84.58    4.88
   1   1  -6   79.02    4.31
  -1  -1   6   84.16    4.60
  -1  -1   6   82.61    4.61
   1   1  -5 2784.12   23.94
  -1  -1   5 2761.44   23.36
   1   1  -5 2637.90   22.27
   1   1  -5 2750.70   24.11
  -1  -1   5 2677.21   23.41
  -1  -1   5 2783.33   24.56
   1   1  -5 2772.81   23.94
   1   1  -5 2761.63   23.74
   1   1  -5 2685.69   25.05
  -1  -1   5 2696.12   23.26
  -1  -1   5 2736.74   23.41
  -1  -1   5 2659.27   23.06
  -1  -1   5 2780.39   23.43
   1   1  -5 2776.72   24.87
  -1  -1   5 2778.92   23.50
  -1  -1   5 2731.17   18.05
   1   1  -5 2754.69   20.87
  -1  -1   5 2767.90   23.53
   1   1  -5 2747.22   22.47
  -1  -1   4  267.58    6.75
  -1  -1   4  259.16    6.26
  -1  -1   4  263.26    6.37
  -1  -1   4  261.24    6.33
   1   1  -4  266.52    6.45
   1   1  -4  260.77    3.69
   1   1  -4  277.64    4.53
  -1  -1   4  252.48    5.08
   1   1  -4  266.50    6.74
  -1  -1   4  261.98    6.31
  -1  -1   4  277.43    6.49
  -1  -1   4  253.48    6.34
  -1  -1   4  270.76    6.39
  -1  -1   4  277.53    6.48
   1   1  -4  253.85    5.44
   1   1  -4  266.57    6.56
   1   1  -4  262.57    6.41
   1   1  -4  244.71    6.01
   1   1  -4  262.35    6.85
   1   1  -4  265.87    6.42
   1   1  -4  251.29    6.01
   1   1  -3  838.91    9.93
  -1  -1   3  848.26    9.89
   1   1  -3  872.43    9.89
   1   1  -3  842.55    9.91
  -1  -1   3  871.80   10.51
   1   1  -3  825.12    6.39
  -1  -1   3  840.56    9.84
  -1  -1   3  841.72   10.07
   1   1  -3  868.10    6.31
  -1  -1   3  870.06    9.92
   1   1  -3  838.82    8.27
  -1  -1   3  890.71   10.01
   1   1  -3  841.08    9.96
   1   1  -3  887.40    9.83
   1   1  -3  866.24   10.86
  -1  -1   3  856.13    9.92
   1   1  -3  838.44   10.34
  -1  -1   3  871.00    8.54
   1   1  -3  853.22   10.18
  -1  -1   3  862.71    9.91
  -1  -1   3  870.35   10.08
  -1  -1   2 1897.03   12.19
  -1  -1   2 1840.19   12.17
   1   1  -2 1955.46   12.72
  -1  -1   2 1924.44   13.36
  -1  -1   2 1926.84   12.32
   1   1  -2 1846.35    9.43
   1   1  -2 1883.59    6.61
  -1  -1   2 1850.86   12.16
  -1  -1   2 1855.16   12.19
  -1  -1   2 1924.74   12.39
   1   1  -2 1876.58    8.64
  -1  -1   2 1962.25   12.90
  -1  -1   2 1855.01   12.93
   1   1  -1 4074.46   14.99
   1   1  -1 4099.98   14.64
  -1  -1   1 4243.44   14.55
   1   1  -1 4579.53   15.35
  -1  -1   1 4455.78    9.87
  -1  -1   1 4190.63   14.47
   1   1  -1 4098.30   14.54
  -1  -1   1 4203.86   14.50
  -1  -1   1 4251.35   16.26
   1   1  -1 4116.87   15.53
  -1  -1   1 4248.44   14.53
  -1  -1   1 4197.82   14.36
   1   1  -1 4172.90   15.38
   1   1  -1 4052.22   14.60
  -1  -1   1 4260.22   14.50
  -1  -1   1 4251.94   16.47
   1   1  -1 4066.00   12.07
  -1  -1   1 4294.60   15.86
   1   1  -1 4127.95   14.57
  -1  -1   0  776.10    4.50
   1   1   0  790.72    5.96
   1   1   0  788.62    4.87
  -1  -1   0  758.96    4.39
   1   1   0  772.77    5.17
   1   1   0  757.61    5.28
   1   1   0  765.93    4.42
   1   1   0  757.89    4.43
   1   1   0  763.40    4.58
  -1  -1   0  784.17    4.46
   1   1   0  757.01    4.43
  -1  -1   0  785.63    4.45
  -1  -1   0  836.81    6.12
  -1  -1   0  791.12    6.04
  -1  -1   0  778.44    4.41
  -1  -1   0  808.88    4.06
   1   1   0  761.49    4.68
   1   1   0  746.60    4.47
  -1  -1   0  798.17    5.00
  -1  -1   0  783.35    4.45
   1   1   1   82.61    1.35
  -1  -1  -1   85.46    1.81
  -1  -1  -1   82.59    1.37
   1   1   1   83.44    1.35
   1   1   1   82.19    1.92
  -1  -1  -1   83.08    1.34
   1   1   1   81.30    1.35
   1   1   1   84.61    1.38
  -1  -1  -1   83.74    1.34
   1   1   1   81.80    1.36
  -1  -1  -1   82.54    1.44
   1   1   1   88.47    1.60
  -1  -1  -1   82.98    1.35
   1   1   1   83.21    1.36
  -1  -1  -1   80.20    1.40
  -1  -1  -1   82.73    1.93
   1   1   2  304.75    3.67
  -1  -1  -2  302.56    3.68
  -1  -1  -2  307.90    4.11
   1   1   2  299.64    4.01
  -1  -1  -2  299.11    3.63
   1   1   2  297.73    4.01
  -1  -1  -2  308.33    4.66
  -1  -1  -2  304.61    3.15
   1   1   2  308.95    3.72
  -1  -1  -2  298.41    3.65
   1   1   2  313.53    3.70
  -1  -1  -2  307.42    3.87
   1   1   2  311.90    3.71
   1   1   2  304.50    3.70
  -1  -1  -2  306.49    3.78
   1   1   2  305.83    3.63
   1   1   2  304.88    3.65
  -1  -1  -2  307.94    2.54
   1   1   2  313.10    3.93
  -1  -1  -3 1174.08    8.01
   1   1   3 1165.69    8.90
   1   1   3 1156.52    9.17
  -1  -1  -3 1149.65    9.58
   1   1   3 1158.31    9.17
   1   1   3 1086.13    8.36
   1   1   3 1133.72    7.68
   1   1   3 1173.10    9.26
  -1  -1  -3 1078.51    9.01
  -1  -1  -3 1134.20    7.39
  -1  -1  -3 1126.72    9.28
  -1  -1  -3 1092.34    9.00
   1   1   3 1152.22    9.18
   1   1   3 1174.12    9.26
   1   1   3 1164.29    9.98
   1   1   3 1148.73    9.15
  -1  -1  -3 1114.22   10.49
  -1  -1  -3 1139.54    9.97
  -1  -1  -3 1124.94    9.13
  -1  -1  -3 1170.12   10.85
   1   1   4   33.78    1.93
  -1  -1  -4   32.33    1.88
  -1  -1  -4   34.35    1.94
   1   1   4   35.43    1.98
   1   1   4   34.10    1.94
  -1  -1  -4   33.90    2.10
  -1  -1  -4   34.12    1.95
   1   1   4   33.47    1.91
  -1  -1  -4   33.46    2.11
   1   1   4   35.31    2.08
   1   1   4   33.08    1.92
  -1  -1  -4   33.38    1.67
   1   1   4   34.77    1.96
  -1  -1  -4   35.79    1.67
  -1  -1  -4   34.78    2.15
  -1  -1  -4   34.05    2.20
  -1  -1  -4   35.10    2.04
   1   1   4   33.68    1.47
   1   1   5  723.87    7.23
   1   1   5  710.22   10.13
   1   1   5  690.66   10.06
  -1  -1  -5  730.84   11.56
   1   1   5  685.33   10.23
   1   1   5  677.24    9.99
  -1  -1  -5  718.09   10.23
  -1  -1  -5  721.94   10.33
  -1  -1  -5  730.09   10.34
  -1  -1  -5  687.89   10.98
  -1  -1  -5  709.21    8.97
  -1  -1  -5  736.64    8.93
  -1  -1  -5  703.14   10.43
  -1  -1  -5  710.68   10.94
  -1  -1  -5  654.29   10.48
   1   1   5  654.89    9.83
   1   1   5  679.30    9.92
   1   1   5  722.55    8.94
   1   1   5  658.66    9.85
  -1  -1  -6  640.77    9.69
   1   1   6  610.69   10.83
  -1  -1  -6  634.74    9.64
  -1  -1  -6  619.16   10.75
  -1  -1  -6  613.86   11.54
   1   1   6  633.22    9.19
   1   1   6  607.70   10.87
   1   1   6  608.88   10.80
  -1  -1  -6  616.17   11.86
   1   1   6  625.13   10.92
  -1  -1  -6  659.41   12.36
  -1  -1  -6  640.96   11.17
   1   1   6  639.69   11.15
   1   1   6  610.54   10.82
  -1  -1  -6  630.13   11.09
  -1  -1  -6  622.30   11.42
  -1  -1  -6  648.11   11.46
   1   1   6  623.56   10.92
  -1  -1  -6  636.06   11.06
  -1  -1  -7  312.79    7.60
  -1  -1  -7  300.49    8.76
  -1  -1  -7  287.19    8.43
  -1  -1  -7  302.32    9.01
  -1  -1  -7  287.82    8.52
  -1  -1  -7  301.79    8.61
  -1  -1  -7  297.18    8.18
   1   1   7  310.83    8.60
   1   1   7  310.08    8.65
  -1  -1  -7  299.98    9.26
   1   1   7  316.29    8.73
  -1  -1  -7  289.88    8.44
   1   1   7  298.52    8.47
  -1  -1  -7  280.56    7.25
   1   1   7  315.71    8.72
  -1  -1  -7  308.16    9.36
   1   1   7  305.59    8.56
   1   1   7  293.71    8.43
   1   1   8  337.54    9.96
   1   1   8  328.94    9.78
   1   1   8  353.36   10.15
   1   1   8  363.17   10.34
  -1  -1  -8  360.93   11.13
  -1  -1  -8  352.40   11.11
   1   1   8  350.32   10.14
   1   1   8  351.86   10.21
  -1  -1  -8  361.85   10.40
  -1  -1  -8  337.14   10.08
  -1  -1  -8  358.94   10.75
   1   1   8  359.85   10.32
  -1  -1  -8  325.19    9.84
  -1  -1  -8  359.80   10.54
   1   1   8  355.46   10.26
  -1  -1  -8  360.48   10.43
  -1  -1  -9  357.77   11.66
   1   1   9  343.95   10.83
   1   1   9  335.78   10.95
  -1  -1  -9  350.94    6.78
  -1  -1  -9  348.40   11.11
  -1  -1  -9  351.85    6.84
  -1  -1  -9  359.69   11.94
  -1  -1  -9  332.39   11.68
  -1  -1  -9  352.23   11.88
  -1  -1  -9  352.22   11.27
   1   1   9  336.38   10.78
   1   1   9  339.04   10.81
   1   1   9  329.47   10.59
  -1  -1  -9  348.83   11.04
   1   1   9  340.69   10.80
   1   1   9  340.44   10.76
  -1  -1  -9  336.83    6.41
   1   1   9  353.13    6.75
   1   1   9  350.07    6.84
   1   1   9  334.19    6.53
   1   1   9  351.11    6.82
   1   1  10    4.33    0.88
   1   1  10    4.57    0.76
  -1  -1 -10    5.50    1.00
  -1  -1 -10    4.57    0.91
   1   1  10    4.99    0.93
  -1  -1 -10    4.98    0.96
  -1  -1 -10    4.11    0.79
   1   1  10    5.11    0.92
   1   1  10    4.15    0.91
  -1  -1 -10    4.72    0.92
   1   1  11  202.36    5.08
  -1  -1 -11  206.54    4.91
  -1  -1 -11  204.71    4.96
   1   1  11  206.59    5.03
  -1  -1 -11  193.62    4.57
  -1  -1 -11  204.90    5.01
  -1  -1 -11  207.30    5.16
   1   1  11  213.70    4.95
   1   1  11  210.20    5.06
   1   1  12   21.05    1.40
   1   1  12   27.79    1.69
  -1  -1 -12   22.77    1.44
  -1  -1 -12   22.54    1.39
  -1  -1 -12   23.92    1.59
  -1  -1 -12   24.74    1.52
  -1  -1 -12   23.94    1.54
  -1  -1 -12   23.28    1.34
   1   1  12   23.77    1.43
   1   1  12   24.00    1.55
   1   1  12   22.84    1.47
  -1  -1 -13   36.82    1.44
  -1  -1 -13   33.32    1.23
   1   1  13   37.06    1.50
   1   1  13   36.55    1.47
  -1  -1 -13   38.03    1.51
  -1  -1 -13   34.64    1.32
  -1  -2  12   74.77    1.81
   1   2 -12   78.46    1.95
   1   2 -12   75.75    1.91
   1   2 -11   15.95    1.26
   1   2 -11   17.02    1.29
   1   2 -11   15.81    1.10
   1   2 -11   16.45    1.07
  -1  -2  11   16.37    1.17
  -1  -2  11   16.57    1.16
  -1  -2  11   16.78    1.24
  -1  -2  11   16.95    1.18
   1   2 -11   16.45    1.23
   1   2 -10   66.57    2.68
  -1  -2  10   64.11    2.71
   1   2 -10   65.10    2.52
   1   2 -10   66.52    2.81
  -1  -2  10   67.04    2.71
   1   2 -10   68.33    2.91
   1   2 -10   60.52    2.50
   1   2 -10   65.58    2.89
  -1  -2  10   66.27    2.70
  -1  -2  10   64.33    2.63
  -1  -2   9    1.72    0.58
   1   2  -9    0.96    0.49
   1   2  -9    1.40    0.59
   1   2  -9    1.09    0.64
  -1  -2   9    1.34    0.64
   1   2  -9    0.84    0.60
  -1  -2   9    0.74    0.55
  -1  -2   9    2.19    0.69
   1   2  -9    1.50    0.61
  -1  -2   9    1.02    0.57
   1   2  -9   -0.08    0.56
  -1  -2   8 1174.66   12.28
   1   2  -8 1160.08   12.74
  -1  -2   8 1181.11   12.07
   1   2  -8 1150.66   12.24
   1   2  -8 1173.02   12.79
  -1  -2   8 1140.76   12.02
  -1  -2   8 1167.92   12.03
   1   2  -8 1120.95   12.02
  -1  -2   8 1178.23   11.39
   1   2  -8 1121.80   11.92
   1   2  -8 1137.52   12.71
  -1  -2   7   55.24    4.37
  -1  -2   7   52.70    4.35
  -1  -2   7   53.65    2.51
   1   2  -7   51.84    2.61
   1   2  -7   56.90    4.51
   1   2  -7   56.45    4.56
  -1  -2   7   51.99    4.24
  -1  -2   7   51.43    2.46
  -1  -2   7   55.81    2.58
  -1  -2   7   53.17    4.26
  -1  -2   7   52.84    4.25
   1   2  -7   51.34    2.47
   1   2  -7   51.12    2.51
   1   2  -7   52.04    4.16
   1   2  -7   51.62    2.61
   1   2  -7   54.64    4.41
  -1  -2   7   50.03    2.42
  -1  -2   7   50.56    4.28
  -1  -2   7   52.80    4.25
  -1  -2   7   50.12    4.00
   1   2  -7   53.15    4.52
   1   2  -7   52.59    4.59
   1   2  -7   54.32    4.38
  -1  -2   7   42.30    4.04
   1   2  -7   55.15    2.67
   1   2  -7   51.23    4.11
   1   2  -6  291.64    9.30
  -1  -2   6  294.49    9.15
  -1  -2   6  257.04    8.78
  -1  -2   6  278.93    8.93
  -1  -2   6  285.65    9.01
   1   2  -6  283.15    9.82
  -1  -2   6  296.12    9.18
   1   2  -6  293.47    9.47
   1   2  -6  285.71    9.61
   1   2  -6  290.91    9.31
  -1  -2   6  282.34    9.18
  -1  -2   6  295.67    9.20
  -1  -2   6  276.08    9.31
  -1  -2   6  261.57    8.53
   1   2  -6  287.28    9.19
   1   2  -6  273.91    8.65
   1   2  -6  278.07    8.82
   1   2  -5  165.82    6.76
   1   2  -5  176.71    6.52
  -1  -2   5  170.73    6.29
   1   2  -5  161.08    5.14
  -1  -2   5  173.59    6.48
  -1  -2   5  169.74    6.45
  -1  -2   5  175.02    6.28
  -1  -2   5  176.48    6.40
   1   2  -5  167.23    6.36
  -1  -2   5  173.51    6.35
   1   2  -5  179.21    6.72
   1   2  -5  172.43    6.42
  -1  -2   5  173.10    6.31
  -1  -2   5  169.90    6.27
   1   2  -5  172.03    6.30
   1   2  -5  163.02    6.04
  -1  -2   5  162.38    6.42
   1   2  -5  177.11    6.83
   1   2  -4 1334.56   15.90
  -1  -2   4 1286.39   16.04
   1   2  -4 1246.61   16.51
  -1  -2   4 1329.33   15.63
  -1  -2   4 1336.64   15.63
  -1  -2   4 1368.44   15.77
  -1  -2   4 1346.85   15.61
   1   2  -4 1332.47   16.57
   1   2  -4 1314.55   15.73
   1   2  -4 1360.98   16.36
  -1  -2   4 1330.78   16.43
  -1  -2   4 1363.14   16.08
   1   2  -4 1411.38   16.10
  -1  -2   4 1398.69   15.89
   1   2  -4 1317.30   15.85
  -1  -2   4 1346.42   12.10
   1   2  -4 1374.99   12.84
  -1  -2   4 1308.86   15.36
   1   2  -3  248.53    6.33
  -1  -2   3  258.32    6.08
   1   2  -3  263.29    6.37
  -1  -2   3  253.78    6.13
   1   2  -3  254.07    6.06
  -1  -2   3  245.67    5.90
   1   2  -3  257.33    4.70
   1   2  -3  258.80    6.15
   1   2  -3  255.41    6.17
  -1  -2   3  246.26    5.94
   1   2  -3  257.01    6.18
  -1  -2   3  250.74    6.05
  -1  -2   3  246.96    6.36
   1   2  -3  254.93    6.13
   1   2  -3  238.55    6.39
  -1  -2   3  243.45    5.90
  -1  -2   3  248.60    5.97
  -1  -2   3  238.29    6.17
   1   2  -2   17.94    1.03
  -1  -2   2   15.99    1.36
   1   2  -2   17.34    1.46
   1   2  -2   17.02    1.54
  -1  -2   2   15.87    1.37
  -1  -2   2   19.97    1.27
   1   2  -2   16.97    1.42
  -1  -2   2   17.72    1.45
   1   2  -2   17.39    1.45
   1   2  -2   17.44    1.44
   1   2  -2   12.53    0.49
  -1  -2   2   16.15    1.42
  -1  -2   2   17.03    1.45
   1   2  -2   19.47    1.51
   1   2  -2   17.12    1.42
  -1  -2   2   16.63    1.53
   1   2  -2   18.72    1.51
  -1  -2   2   17.25    1.44
  -1  -2   2   19.87    1.66
  -1  -2   2   17.53    1.43
   1   2  -2   15.01    1.39
  -1  -2   1  615.06    7.16
  -1  -2   1  609.01    7.11
  -1  -2   1  599.72    7.03
  -1  -2   1  597.73    7.04
   1   2  -1  598.65    7.12
  -1  -2   1  603.79    7.07
  -1  -2   1  607.69    7.51
   1   2  -1  597.37    7.13
   1   2  -1  592.17    7.18
  -1  -2   1  565.41    7.41
  -1  -2   1  590.64    7.67
  -1  -2   1  607.15    7.22
   1   2  -1  585.00    6.92
   1   2  -1  634.88    7.28
   1   2  -1  590.40    7.06
   1   2  -1  585.74    7.46
  -1  -2   1  617.24    6.41
   1   2  -1  580.99    6.94
   1   2  -1  586.37    7.29
  -1  -2   0 3818.25   16.15
   1   2   0 3841.00   16.30
  -1  -2   0 3899.07   16.38
   1   2   0 3737.55   15.54
   1   2   0 3816.97   14.29
   1   2   0 3738.47   16.35
   1   2   0 3888.85   15.20
   1   2   0 3849.80   15.74
  -1  -2   0 3776.34   15.47
   1   2   0 3690.69   15.92
  -1  -2   0 3817.45   15.79
  -1  -2   0 3836.05   15.62
   1   2   0 3812.94   15.56
  -1  -2   0 3790.39   17.65
  -1  -2   0 3760.98   17.54
  -1  -2   0 3818.07   15.49
  -1  -2   0 3795.76   15.57
  -1  -2   0 3718.64   12.42
   1   2   0 3804.77   15.79
   1   2   1 9462.13   24.62
  -1  -2  -1 9654.68   23.36
   1   2   2 3764.71   15.79
  -1  -2  -2 3905.35   17.46
   1   2   2 3756.17   15.89
  -1  -2  -2 3785.49   18.70
  -1  -2  -2 3765.76   15.94
   1   2   2 3803.30   15.78
   1   2   2 3746.93   15.66
   1   2   2 3726.48   15.66
  -1  -2  -2 3747.60   16.43
   1   2   2 3707.29   16.11
  -1  -2  -2 3792.95   15.83
  -1  -2  -2 3842.90   15.64
  -1  -2  -2 3828.75   16.99
  -1  -2  -2 3886.56   18.25
   1   2   2 3679.37   15.87
   1   2   2 3785.13   16.57
   1   2   2 3750.21   10.94
   1   2   2 3629.38   14.95
  -1  -2  -2 3664.15   15.35
   1   2   2 3909.04   17.57
  -1  -2  -3 1144.75   10.16
  -1  -2  -3 1139.01    9.85
   1   2   3 1178.92   10.12
  -1  -2  -3 1185.24   11.49
   1   2   3 1158.61    9.87
  -1  -2  -3 1104.81   11.08
   1   2   3 1184.05   10.03
   1   2   3 1151.86    8.56
  -1  -2  -3 1185.58   10.10
  -1  -2  -3 1145.95    9.79
   1   2   3 1153.04   10.14
   1   2   3 1199.64   10.00
  -1  -2  -3 1138.79   11.33
  -1  -2  -3 1164.33    9.88
  -1  -2  -3 1147.85    6.86
   1   2   3 1130.54   10.31
   1   2   3 1192.70   10.02
  -1  -2  -3 1143.37   10.48
   1   2   3 1152.69    9.01
   1   2   3 1169.99    9.95
  -1  -2  -4   95.51    3.38
  -1  -2  -4   90.35    2.41
   1   2   4   87.33    3.00
  -1  -2  -4   89.44    3.20
  -1  -2  -4   87.40    3.60
  -1  -2  -4   93.47    3.60
  -1  -2  -4   89.06    3.56
   1   2   4   89.96    3.21
  -1  -2  -4   84.26    3.11
   1   2   4   88.88    3.23
  -1  -2  -4   91.61    1.96
   1   2   4   81.37    3.05
  -1  -2  -4   87.68    3.55
   1   2   4   89.89    2.52
  -1  -2  -4   90.97    3.40
   1   2   4   90.36    2.55
   1   2   4   86.88    3.29
   1   2   4   84.06    3.09
  -1  -2  -4   87.26    3.16
   1   2   4   89.05    3.20
   1   2   4   86.37    3.12
   1   2   5  909.38   11.99
  -1  -2  -5  979.92   12.02
  -1  -2  -5  969.27   11.98
  -1  -2  -5  980.57    8.26
  -1  -2  -5  975.35   12.60
   1   2   5 1023.18    9.26
   1   2   5  956.36   12.80
   1   2   5  936.96   11.66
  -1  -2  -5  920.43   12.74
  -1  -2  -5  945.22   12.29
  -1  -2  -5  985.70   12.22
   1   2   5  953.61   11.77
   1   2   5  959.66   11.91
  -1  -2  -5  973.48    9.52
   1   2   5  975.46   11.90
  -1  -2  -5  989.86   13.28
  -1  -2  -5  987.24   12.04
   1   2   5  966.48   11.82
   1   2   5  926.68   10.52
   1   2   5  976.31   11.95
  -1  -2  -5 1002.22   13.67
   1   2   6   34.10    2.56
   1   2   6   30.17    2.43
   1   2   6   29.75    2.44
   1   2   6   32.94    2.52
  -1  -2  -6   29.01    2.45
  -1  -2  -6   32.65    2.79
   1   2   6   35.70    2.62
   1   2   6   29.96    2.45
  -1  -2  -6   30.47    2.49
  -1  -2  -6   34.21    2.92
  -1  -2  -6   29.65    2.65
  -1  -2  -6   30.49    2.64
   1   2   6   31.28    2.64
   1   2   6   28.72    1.98
  -1  -2  -6   30.91    2.51
  -1  -2  -6   29.53    2.47
  -1  -2  -6   29.41    2.50
  -1  -2  -6   31.28    1.99
   1   2   6   31.04    2.46
   1   2   7   49.82    3.44
  -1  -2  -7   47.26    3.36
   1   2   7   51.92    3.52
   1   2   7   55.15    3.61
  -1  -2  -7   48.56    3.45
  -1  -2  -7   46.96    3.37
  -1  -2  -7   54.57    3.73
  -1  -2  -7   51.07    3.81
  -1  -2  -7   50.88    3.50
   1   2   7   49.54    3.47
   1   2   7   50.34    3.45
   1   2   7   53.85    3.58
  -1  -2  -7   53.16    3.99
  -1  -2  -7   47.62    3.62
   1   2   7   50.99    3.50
  -1  -2  -7   50.14    3.73
   1   2   7   47.21    3.53
   1   2   8  206.41    7.67
  -1  -2  -8  198.17    8.39
  -1  -2  -8  203.18    8.34
   1   2   8  205.46    7.70
  -1  -2  -8  205.58    8.21
  -1  -2  -8  206.12    7.83
  -1  -2  -8  212.85    7.90
  -1  -2  -8  181.41    7.60
  -1  -2  -8  195.29    7.77
   1   2   8  206.97    7.72
   1   2   8  211.35    7.79
   1   2   8  208.42    7.79
   1   2   8  204.06    7.67
  -1  -2  -8  214.31    7.94
   1   2   8  200.37    7.66
   1   2   9  294.06    5.90
   1   2   9  280.63    9.74
   1   2   9  290.23    9.99
  -1  -2  -9  279.78   10.54
  -1  -2  -9  292.85   10.10
  -1  -2  -9  284.15   10.36
  -1  -2  -9  299.67    6.15
  -1  -2  -9  307.39    6.39
   1   2   9  264.20    9.55
   1   2   9  291.53    9.92
   1   2   9  280.77    9.76
   1   2   9  306.02    6.30
   1   2   9  281.99    9.71
  -1  -2  -9  286.68    9.96
  -1  -2  -9  297.76   10.35
  -1  -2  -9  297.66   11.09
   1   2   9  275.68    9.64
   1   2   9  302.14    6.13
   1   2   9  296.16    6.15
  -1  -2  -9  289.20   10.14
  -1  -2  -9  285.59    9.88
   1   2   9  303.07    6.38
   1   2   9  297.25    6.25
  -1  -2 -10   13.06    1.40
   1   2  10   12.43    1.39
  -1  -2 -10   12.69    1.44
   1   2  10   11.36    1.27
   1   2  10   12.43    1.26
   1   2  10   12.97    1.38
   1   2  10   13.42    1.42
  -1  -2 -10   12.37    1.31
  -1  -2 -11    9.40    1.13
   1   2  11    7.94    1.09
  -1  -2 -11    7.68    1.07
   1   2  11    7.69    1.05
  -1  -2 -11    8.27    1.12
  -1  -2 -11    6.89    1.04
   1   2  11    8.76    1.12
  -1  -2 -11    9.18    1.14
   1   2  11    7.84    1.09
  -1  -2 -12   13.40    1.23
  -1  -2 -12   14.09    1.24
   1   2  12   14.50    1.25
   1   2  12   14.87    1.26
  -1  -2 -12   12.85    1.12
   1   2  12   15.34    1.31
  -1  -2 -12   14.02    1.29
  -1  -2 -12   15.47    1.24
   1   2  12   12.68    1.20
   1   2  13  199.24    3.42
   1   2  13  176.13    3.31
  -1  -2 -13  202.39    3.60
  -1  -2 -13  205.32    3.51
   1   2  13  205.51    3.39
  -1  -2 -13  192.12    3.03
  -1  -2 -13  169.16    2.86
  -1  -2 -13  206.64    3.65
   1   2  13  205.93    3.59
   1   3 -11    3.27    0.54
  -1  -3  11    2.22    0.50
  -1  -3  11    2.66    0.50
   1   3 -11    2.52    0.53
   1   3 -11    2.61    0.53
   1   3 -10   65.70    2.61
   1   3 -10   58.05    2.07
   1   3 -10   64.12    2.29
  -1  -3  10   66.94    2.28
  -1  -3  10   63.69    2.49
  -1  -3  10   66.11    2.27
  -1  -3  10   64.72    2.47
   1   3 -10   65.93    2.59
   1   3 -10   65.10    2.58
  -1  -3  10   62.48    2.07
  -1  -3   9  525.37    7.94
   1   3  -9  507.36    7.24
  -1  -3   9  539.54    7.47
  -1  -3   9  536.98    7.29
   1   3  -9  524.79    8.18
   1   3  -9  535.04    8.34
   1   3  -9  505.02    7.61
   1   3  -9  517.46    7.18
  -1  -3   9  511.19    7.33
  -1  -3   9  510.31    7.69
   1   3  -9  532.21    8.24
   1   3  -8  718.16    9.14
   1   3  -8  700.15    9.16
   1   3  -8  722.90   10.19
  -1  -3   8  713.85    9.04
   1   3  -8  699.39    9.99
   1   3  -8  723.36   10.09
  -1  -3   8  733.09    9.76
  -1  -3   8  725.16    9.17
  -1  -3   8  728.39    9.21
   1   3  -8  691.35    9.62
  -1  -3   8  718.89    9.57
  -1  -3   7  110.55    3.61
   1   3  -7  109.10    3.84
  -1  -3   7  108.06    6.68
   1   3  -7  110.03    3.64
  -1  -3   7  107.47    3.48
  -1  -3   7  102.56    3.31
   1   3  -7  103.99    6.30
   1   3  -7  104.92    3.53
  -1  -3   7  112.45    3.78
   1   3  -7  110.46    3.94
   1   3  -7  110.82    3.92
   1   3  -7  107.73    3.90
   1   3  -7  103.30    3.59
  -1  -3   7  104.35    6.49
  -1  -3   7  109.00    3.72
   1   3  -7   97.97    6.00
   1   3  -6  663.86   16.01
  -1  -3   6  687.67   15.01
   1   3  -6  687.96   15.81
  -1  -3   6  653.64   15.27
  -1  -3   6  676.31   14.92
  -1  -3   6  680.46   15.01
   1   3  -6  658.92    9.14
  -1  -3   6  684.59   15.57
   1   3  -6  665.02    9.15
   1   3  -6  643.03   14.31
  -1  -3   6  689.19    8.82
   1   3  -6  683.73   15.14
   1   3  -6  658.66   15.08
  -1  -3   6  680.20   15.25
  -1  -3   6  677.68    8.80
   1   3  -6  683.20   15.29
  -1  -3   6  668.03   14.90
   1   3  -6  661.50   15.04
  -1  -3   6  684.31   15.03
  -1  -3   6  652.23   14.05
   1   3  -6  667.84   15.29
   1   3  -6  665.39    9.26
  -1  -3   5   37.81    3.45
   1   3  -5   40.45    3.52
   1   3  -5   35.88    3.26
   1   3  -5   38.52    3.59
  -1  -3   5   37.90    3.28
  -1  -3   5   36.53    3.11
   1   3  -5   40.71    3.49
  -1  -3   5   35.55    3.34
   1   3  -5   39.06    3.51
  -1  -3   5   37.34    3.27
  -1  -3   5   41.55    3.43
  -1  -3   5   41.29    3.41
  -1  -3   5   42.24    3.52
  -1  -3   5   40.53    3.41
   1   3  -5   43.05    3.52
   1   3  -5   40.54    3.46
  -1  -3   4    5.69    1.29
   1   3  -4    9.05    1.61
  -1  -3   4    8.91    1.56
  -1  -3   4    5.67    1.27
  -1  -3   4    7.78    1.49
  -1  -3   4    7.16    1.43
   1   3  -4   13.98    2.01
  -1  -3   4   11.84    1.79
   1   3  -4    4.81    1.16
  -1  -3   4   13.91    1.96
   1   3  -4   10.32    1.75
   1   3  -4    9.08    1.71
  -1  -3   4    3.68    1.03
   1   3  -4    7.97    1.48
   1   3  -4    9.26    1.66
  -1  -3   4   10.29    1.79
   1   3  -3  542.34   10.16
  -1  -3   3  540.01   10.12
  -1  -3   3  529.39   10.00
  -1  -3   3  536.15   10.07
  -1  -3   3  518.93    9.68
  -1  -3   3  547.59   10.67
   1   3  -3  519.96   10.10
   1   3  -3  528.91   10.17
  -1  -3   3  525.05    9.93
   1   3  -3  542.63   10.27
  -1  -3   3  528.90   10.03
   1   3  -3  507.64    9.98
   1   3  -3  561.16   10.31
  -1  -3   3  525.60   10.17
   1   3  -3  544.78   10.94
   1   3  -3  541.43   10.42
   1   3  -3  538.30   10.56
  -1  -3   3  554.26   10.71
  -1  -3   2   18.83    1.78
   1   3  -2   15.46    1.62
   1   3  -2   14.74    1.57
   1   3  -2   18.29    1.86
   1   3  -2   16.37    1.70
  -1  -3   2   15.37    1.61
   1   3  -2   14.42    1.58
  -1  -3   2   16.12    1.60
   1   3  -2   17.08    1.70
   1   3  -2   13.71    1.51
   1   3  -2   15.80    1.61
  -1  -3   2   18.08    1.74
  -1  -3   2   18.38    1.86
  -1  -3   2   17.23    1.66
  -1  -3   2   17.60    1.82
  -1  -3   2   18.09    1.77
  -1  -3   2   15.92    1.46
   1   3  -1  445.64    7.66
  -1  -3   1  443.92    7.56
  -1  -3   1  450.19    7.62
  -1  -3   1  456.23    7.37
  -1  -3   1  443.05    7.68
   1   3  -1  429.42    7.53
   1   3  -1  461.42    7.65
  -1  -3   1  441.18    7.85
  -1  -3   1  457.53    7.65
   1   3  -1  459.19    7.58
  -1  -3   1  437.78    7.52
  -1  -3   1  442.55    8.00
   1   3  -1  438.58    7.55
  -1  -3   1  443.02    7.61
  -1  -3   1  460.27    8.06
   1   3  -1  443.46    7.16
   1   3  -1  446.86    7.79
   1   3  -1  428.84    7.91
   1   3  -1  440.39    7.87
  -1  -3   0    7.22    0.99
   1   3   0    8.61    1.12
  -1  -3   0    4.46    0.85
  -1  -3   0    7.95    1.03
  -1  -3   0    8.93    1.06
   1   3   0    1.54    0.60
   1   3   0    2.53    0.66
  -1  -3   0    5.87    0.96
   1   3   0    2.40    0.70
   1   3   0    1.93    0.60
  -1  -3   0    3.00    0.71
  -1  -3   0    6.71    0.97
   1   3   0    2.26    0.59
  -1  -3   0    5.27    0.69
   1   3   0    8.65    1.11
  -1  -3   0    2.57    0.73
   1   3   0    2.48    0.52
   1   3   0    2.62    0.69
  -1  -3   0    8.38    1.05
  -1  -3  -1 4542.97   22.84
   1   3   1 4620.94   22.10
  -1  -3  -1 4750.86   21.78
   1   3   1 4500.09   21.58
   1   3   1 4734.79   22.28
  -1  -3  -1 4675.77   23.92
   1   3   1 4533.70   21.52
   1   3   1 4660.60   21.81
   1   3   1 4608.57   21.63
  -1  -3  -1 4899.39   21.36
  -1  -3  -1 4571.52   22.97
   1   3   1 4759.27   15.52
   1   3   1 4655.44   19.53
  -1  -3  -1 4610.44   21.59
  -1  -3  -1 4739.72   21.70
   1   3   1 4562.55   22.51
  -1  -3  -1 4598.60   21.83
  -1  -3  -1 4541.42   22.26
  -1  -3  -1 4544.34   19.92
   1   3   2 2505.67   16.21
   1   3   2 2403.56   16.08
   1   3   2 2416.85   15.88
  -1  -3  -2 2432.14   17.84
  -1  -3  -2 2440.06   16.09
   1   3   2 2457.55   16.04
  -1  -3  -2 2470.32   16.82
  -1  -3  -2 2437.29   15.73
   1   3   2 2447.30   13.18
   1   3   2 2450.98   16.35
   1   3   2 2494.24   16.11
   1   3   2 2391.45   16.34
  -1  -3  -2 2456.14   15.88
  -1  -3  -2 2455.03   15.95
  -1  -3  -2 2489.25   16.41
  -1  -3  -2 2442.78   16.74
   1   3   2 2426.79   17.11
  -1  -3  -2 2474.40   16.37
  -1  -3  -3  204.29    5.09
  -1  -3  -3  213.00    5.60
   1   3   3  209.37    4.95
  -1  -3  -3  212.59    4.95
   1   3   3  217.21    4.80
   1   3   3  208.72    5.02
   1   3   3  214.76    5.23
   1   3   3  207.06    4.94
  -1  -3  -3  210.62    5.34
   1   3   3  214.86    5.03
   1   3   3  219.24    5.40
  -1  -3  -3  201.90    4.83
  -1  -3  -3  217.22    5.54
   1   3   3  207.15    3.82
   1   3   3  206.51    4.95
  -1  -3  -3  222.98    5.50
  -1  -3  -3  210.91    4.99
  -1  -3  -3  209.03    5.02
   1   3   3  204.42    5.00
  -1  -3  -4   22.58    1.80
  -1  -3  -4   21.93    1.77
  -1  -3  -4   27.30    2.17
  -1  -3  -4   21.63    1.79
  -1  -3  -4   24.77    2.10
   1   3   4   24.53    1.88
   1   3   4   24.55    1.88
   1   3   4   22.10    1.78
  -1  -3  -4   20.84    1.74
   1   3   4   24.18    1.86
   1   3   4   23.04    1.91
  -1  -3  -4   23.10    1.89
   1   3   4   21.46    1.48
  -1  -3  -4   25.77    2.03
   1   3   4   22.74    1.84
  -1  -3  -4   23.51    2.06
   1   3   4   20.35    1.26
   1   3   4   23.99    1.85
   1   3   4   22.60    1.87
  -1  -3  -5   20.21    1.92
   1   3   5   18.70    1.76
  -1  -3  -5   19.68    1.87
  -1  -3  -5   18.33    1.78
  -1  -3  -5   19.31    1.95
  -1  -3  -5   19.08    1.81
   1   3   5   19.31    1.82
  -1  -3  -5   18.51    2.07
   1   3   5   16.23    1.76
   1   3   5   21.01    1.90
  -1  -3  -5   17.66    1.85
   1   3   5   21.33    1.91
  -1  -3  -5   16.15    1.89
   1   3   5   17.92    1.77
   1   3   5   16.61    1.70
   1   3   5   18.31    1.76
  -1  -3  -5   20.92    2.14
  -1  -3  -6  555.55   10.78
   1   3   6  527.40   10.27
   1   3   6  534.24   10.37
  -1  -3  -6  510.82   10.79
  -1  -3  -6  534.98   10.46
   1   3   6  525.88   10.28
  -1  -3  -6  527.14   11.42
  -1  -3  -6  530.02   11.71
   1   3   6  523.25   10.27
  -1  -3  -6  534.92   10.91
  -1  -3  -6  539.51   11.54
   1   3   6  506.01   10.39
  -1  -3  -6  528.83   10.32
   1   3   6  538.10   10.36
   1   3   6  530.12   10.36
  -1  -3  -6  527.09   10.37
   1   3   6  529.61    9.84
  -1  -3  -7  486.10   11.15
  -1  -3  -7  494.56   11.10
  -1  -3  -7  496.29   12.09
   1   3   7  475.76   10.80
  -1  -3  -7  483.95   11.15
   1   3   7  472.54   10.72
   1   3   7  467.10   10.69
   1   3   7  470.53   10.97
  -1  -3  -7  482.89   11.94
  -1  -3  -7  489.83   11.43
  -1  -3  -7  512.05   12.60
   1   3   7  481.60   10.83
   1   3   7  475.90   10.79
  -1  -3  -7  473.64   10.91
   1   3   7  465.03    9.59
  -1  -3  -8   83.63    5.36
   1   3   8   83.84    4.94
   1   3   8   90.10    5.13
   1   3   8   83.71    4.93
   1   3   8   87.53    5.05
   1   3   8   80.00    4.86
  -1  -3  -8   81.91    4.98
  -1  -3  -8   82.82    5.01
  -1  -3  -8   85.91    5.17
  -1  -3  -8   81.37    5.54
  -1  -3  -8   82.25    5.46
  -1  -3  -8   86.07    5.14
  -1  -3  -8   80.72    5.30
   1   3   8   86.32    5.02
   1   3   8   79.37    4.94
  -1  -3  -8   81.57    4.84
   1   3   9  101.28    5.91
  -1  -3  -9  104.03    5.94
   1   3   9  104.14    3.60
  -1  -3  -9   99.52    6.30
   1   3   9  100.58    5.80
   1   3   9  101.90    5.88
  -1  -3  -9  104.62    6.07
  -1  -3  -9  102.22    6.31
  -1  -3  -9   94.29    6.38
  -1  -3  -9  110.16    6.20
  -1  -3  -9   99.67    3.35
   1   3   9  106.28    6.10
   1   3   9  102.80    5.88
   1   3   9   99.51    3.44
  -1  -3  -9  100.93    6.07
  -1  -3  -9  109.12    3.77
   1   3   9  100.19    3.74
   1   3   9  100.33    3.60
   1   3   9   93.43    5.64
   1   3   9  106.26    3.75
  -1  -3  -9  102.44    6.46
   1   3   9  104.08    3.75
   1   3   9  100.70    5.81
   1   3  10   16.58    1.47
  -1  -3 -10   17.47    1.61
  -1  -3 -10   16.87    1.38
  -1  -3 -10   15.18    1.51
   1   3  10   15.75    1.47
   1   3  10   17.05    1.63
   1   3  10   15.84    1.51
   1   3  10   16.01    1.45
   1   3  10   17.41    1.49
   1   3  10   16.26    1.60
  -1  -3 -11   42.31    2.35
  -1  -3 -11   42.22    2.36
   1   3  11   38.29    2.28
  -1  -3 -11   38.86    2.20
   1   3  11   40.45    2.21
  -1  -3 -11   40.46    2.31
   1   3  11   40.08    2.05
   1   3  11   38.80    2.28
   1   3  11   41.18    2.16
  -1  -3 -12   96.11    3.15
  -1  -3 -12   94.11    3.08
   1   3  12   93.06    3.15
   1   3  12   90.48    2.82
  -1  -3 -12   90.56    2.73
   1   3  12   94.63    2.99
  -1  -3 -12   93.51    2.99
  -1  -3 -12   89.60    3.06
   1   3  12   90.34    3.07
  -1  -3 -13    3.37    0.58
   1   3  13    2.85    0.58
  -1  -3 -13    3.50    0.59
   1   3  13    2.68    0.49
  -1  -3 -13    3.53    0.60
  -1  -3 -13    3.35    0.51
   1   3  13    3.01    0.55
   1   3  13    2.71    0.54
   1   3  13    5.56    0.69
   1   4 -10  139.11    3.07
   1   4 -10  131.23    2.65
  -1  -4  10  142.88    3.10
   1   4 -10  140.73    3.15
  -1  -4  10  143.37    3.11
   1   4 -10  138.50    3.15
  -1  -4   9   69.36    2.45
   1   4  -9   68.76    2.68
  -1  -4   9   71.16    2.67
   1   4  -9   70.25    2.76
   1   4  -9   71.85    2.80
  -1  -4   9   71.44    2.68
   1   4  -9   68.99    2.58
   1   4  -8   72.37    3.11
  -1  -4   8   71.49    2.84
   1   4  -8   74.98    3.12
   1   4  -8   68.54    2.96
  -1  -4   8   72.55    2.96
  -1  -4   8   70.95    2.59
  -1  -4   8   70.92    2.62
  -1  -4   8   71.69    2.95
   1   4  -8   71.95    2.85
   1   4  -8   69.97    3.07
   1   4  -7   63.35    2.90
  -1  -4   7   63.76    2.85
   1   4  -7   69.77    3.12
  -1  -4   7   66.76    2.94
   1   4  -7   66.11    3.06
   1   4  -7   67.13    3.10
  -1  -4   7   63.32    2.65
  -1  -4   7   63.01    2.68
  -1  -4   7   65.74    2.92
   1   4  -7   64.69    3.05
  -1  -4   6    2.17    0.60
   1   4  -6    3.59    1.32
   1   4  -6    2.88    0.74
   1   4  -6    1.51    0.93
  -1  -4   6    3.53    0.80
  -1  -4   6    4.50    1.59
  -1  -4   6    3.34    0.76
  -1  -4   6    3.64    1.34
   1   4  -6    3.25    0.78
   1   4  -6    3.71    0.78
   1   4  -6    2.70    0.71
  -1  -4   6    3.93    0.80
   1   4  -6    2.62    0.69
  -1  -4   5 1241.32   19.05
   1   4  -5 1364.15   21.70
  -1  -4   5 1319.96   11.91
  -1  -4   5 1429.26   21.94
  -1  -4   5 1398.11   21.63
  -1  -4   5 1386.51   21.49
  -1  -4   5 1370.41   21.28
   1   4  -5 1372.61   22.07
   1   4  -5 1359.34   22.64
  -1  -4   5 1348.59   21.88
  -1  -4   5 1381.59   21.77
  -1  -4   5 1332.53   21.93
   1   4  -5 1297.39   21.01
   1   4  -5 1352.85   21.51
  -1  -4   5 1283.49   21.26
   1   4  -5 1288.59   12.79
   1   4  -5 1321.43   12.80
   1   4  -5 1316.63   13.05
   1   4  -5 1351.82   21.58
   1   4  -5 1366.66   22.93
  -1  -4   5 1296.48   12.07
  -1  -4   5 1318.15   12.28
  -1  -4   5 1291.92   11.97
   1   4  -5 1338.23   12.98
   1   4  -5 1259.40   12.73
  -1  -4   4   98.45    5.62
  -1  -4   4  102.87    5.56
   1   4  -4  105.16    5.83
  -1  -4   4  102.13    5.15
   1   4  -4  106.16    5.73
  -1  -4   4  103.19    5.49
   1   4  -4  110.79    5.77
   1   4  -4  103.21    5.52
  -1  -4   4  102.44    5.47
   1   4  -4   99.61    5.41
   1   4  -4  105.08    5.96
  -1  -4   4  109.25    5.66
  -1  -4   4   90.22    5.31
  -1  -4   4  101.10    5.61
   1   4  -4  106.12    5.64
  -1  -4   4  101.72    5.43
  -1  -4   3 1562.10   18.80
  -1  -4   3 1700.25   20.79
  -1  -4   3 1673.83   20.45
  -1  -4   3 1707.62   20.58
   1   4  -3 1757.75   21.48
   1   4  -3 1697.87   21.57
   1   4  -3 1646.59   21.57
  -1  -4   3 1691.14   21.13
   1   4  -3 1691.14   20.74
   1   4  -3 1672.69   20.50
  -1  -4   3 1678.80   20.35
   1   4  -3 1689.56   20.31
   1   4  -3 1662.24   20.25
   1   4  -3 1718.80   20.98
   1   4  -3 1635.39   20.50
  -1  -4   3 1711.31   20.60
  -1  -4   3 1694.76   21.29
  -1  -4   3 1633.79   20.95
   1   4  -2  997.97   14.66
   1   4  -2 1052.98   15.68
   1   4  -2 1059.45   15.13
  -1  -4   2  996.48   15.12
   1   4  -2 1050.16   15.24
   1   4  -2 1040.09   15.06
  -1  -4   2 1059.64   14.92
  -1  -4   2  972.78   14.89
   1   4  -2 1007.37   14.12
  -1  -4   2 1078.31   15.10
  -1  -4   2 1055.22   14.98
  -1  -4   2 1047.96   15.11
  -1  -4   2 1032.46   14.71
   1   4  -2 1051.89   14.99
  -1  -4   2  944.78   13.68
   1   4  -2  998.64   14.49
   1   4  -2 1031.37   15.80
  -1  -4   2 1050.93   14.31
  -1  -4   2 1027.59   15.33
   1   4  -1  627.92    9.95
   1   4  -1  617.24   10.74
   1   4  -1  634.48   11.21
  -1  -4   1  600.72   10.26
  -1  -4   1  612.56   11.08
   1   4  -1  609.83   10.64
   1   4  -1  617.22   10.51
   1   4  -1  610.58   10.74
   1   4  -1  618.03   11.28
  -1  -4   1  637.72   11.04
  -1  -4   1  621.92   10.68
  -1  -4   1  640.26   10.85
  -1  -4   1  640.19   10.88
  -1  -4   1  626.51   10.61
  -1  -4   1  613.04   11.00
   1   4  -1  625.73   10.86
  -1  -4   1  571.56   10.63
   1   4  -1  620.23   10.65
  -1  -4   1  624.39   10.69
  -1  -4   0 1710.70   17.31
  -1  -4   0 1740.61   16.93
   1   4   0 1605.11   15.67
   1   4   0 1719.33   17.08
   1   4   0 1701.86   16.85
   1   4   0 1743.93   17.69
  -1  -4   0 1786.18   17.42
  -1  -4   0 1660.39   17.08
  -1  -4   0 1706.26   17.33
  -1  -4   0 1737.88   16.93
   1   4   0 1734.23   14.36
  -1  -4   0 1647.15   13.93
  -1  -4   0 1742.44   17.00
  -1  -4   0 1624.30   16.74
   1   4   0 1719.22   16.68
  -1  -4   0 1744.29   16.85
   1   4   0 1701.17   16.60
   1   4   0 1685.94   16.62
   1   4   0 1703.96   16.78
   1   4   1  356.49    7.81
   1   4   1  366.32    7.62
   1   4   1  358.56    7.61
  -1  -4  -1  365.11    7.49
  -1  -4  -1  329.58    7.31
   1   4   1  346.91    7.36
  -1  -4  -1  342.47    7.79
  -1  -4  -1  348.01    7.90
  -1  -4  -1  346.75    7.60
   1   4   1  361.81    7.52
  -1  -4  -1  350.08    7.41
   1   4   1  353.47    5.40
   1   4   1  356.15    7.43
  -1  -4  -1  354.65    7.37
   1   4   1  346.06    7.36
  -1  -4  -1  348.69    7.66
  -1  -4  -1  346.72    7.42
  -1  -4  -1  342.68    6.76
   1   4   1  343.96    6.75
  -1  -4  -2  521.18    8.85
   1   4   2  538.78    9.08
  -1  -4  -2  527.12    9.05
   1   4   2  524.09    8.97
   1   4   2  515.48    9.25
  -1  -4  -2  543.20    8.88
   1   4   2  518.80    8.95
  -1  -4  -2  528.17    9.22
  -1  -4  -2  528.60    8.90
  -1  -4  -2  532.23    9.00
  -1  -4  -2  583.72    9.60
   1   4   2  493.67    7.67
   1   4   2  535.22    9.07
  -1  -4  -2  497.33    9.67
   1   4   2  523.65    8.97
  -1  -4  -2  516.14    8.96
   1   4   2  495.02    9.23
   1   4   2  509.80    8.97
  -1  -4  -2  522.04    9.49
  -1  -4  -3    1.92    0.94
   1   4   3    3.47    0.92
  -1  -4  -3    2.59    0.75
  -1  -4  -3    3.42    0.86
  -1  -4  -3    2.89    0.82
   1   4   3    3.26    0.64
  -1  -4  -3    3.45    0.89
   1   4   3    3.94    0.89
  -1  -4  -3    2.58    0.81
  -1  -4  -3    2.60    0.83
   1   4   3    2.06    0.75
  -1  -4  -3    2.92    0.82
  -1  -4  -3    2.65    0.86
   1   4   3    2.96    0.82
   1   4   3    2.41    0.85
   1   4   3    2.30    0.75
   1   4   3    2.61    0.77
   1   4   3    2.63    0.77
  -1  -4  -3    3.46    1.00
   1   4   4  357.74    7.98
   1   4   4  348.80    7.86
   1   4   4  330.01    8.13
  -1  -4  -4  345.31    8.63
  -1  -4  -4  346.38    7.78
   1   4   4  356.51    7.09
   1   4   4  347.30    7.83
  -1  -4  -4  338.83    7.77
   1   4   4  334.76    7.81
   1   4   4  337.73    7.72
   1   4   4  336.07    7.89
  -1  -4  -4  342.41    7.74
  -1  -4  -4  338.63    8.47
   1   4   4  337.79    6.10
  -1  -4  -4  340.88    8.34
   1   4   4  345.66    7.80
  -1  -4  -4  364.74    8.56
  -1  -4  -4  345.31    7.92
  -1  -4  -4  350.40    8.18
   1   4   5  124.25    4.99
  -1  -4  -5  124.88    5.30
  -1  -4  -5  137.99    5.83
  -1  -4  -5  127.13    5.06
   1   4   5  127.81    5.06
  -1  -4  -5  123.55    5.44
  -1  -4  -5  128.76    5.12
   1   4   5  124.63    4.98
  -1  -4  -5  126.18    5.02
   1   4   5  126.01    5.08
   1   4   5  129.88    5.26
   1   4   5  127.06    5.05
  -1  -4  -5  124.22    5.60
  -1  -4  -5  133.79    5.36
   1   4   5  119.13    5.08
   1   4   6  508.61   11.15
   1   4   6  492.11   10.63
  -1  -4  -6  515.98   11.56
   1   4   6  511.04   10.87
   1   4   6  495.60   10.72
  -1  -4  -6  521.32   11.07
  -1  -4  -6  465.03   11.62
  -1  -4  -6  491.35   10.70
  -1  -4  -6  509.71   11.23
  -1  -4  -6  504.70   10.82
   1   4   6  505.67   10.75
  -1  -4  -6  475.22   11.33
   1   4   6  514.39   10.97
   1   4   6  502.63   10.85
   1   4   6  492.46   10.78
  -1  -4  -6  514.85   12.23
  -1  -4  -6  492.75   11.94
  -1  -4  -7   58.12    4.52
  -1  -4  -7   58.07    4.00
  -1  -4  -7   59.49    4.45
   1   4   7   58.03    3.97
  -1  -4  -7   60.32    4.29
   1   4   7   59.14    4.15
  -1  -4  -7   59.02    4.03
   1   4   7   57.24    3.91
   1   4   7   59.88    4.03
  -1  -4  -7   63.24    4.34
  -1  -4  -7   61.44    4.58
   1   4   7   61.37    4.08
  -1  -4  -7   57.42    3.97
   1   4   7   62.79    4.10
   1   4   7   58.54    3.90
   1   4   7   65.87    4.21
  -1  -4  -7   61.52    4.16
  -1  -4  -8  145.09    6.79
   1   4   8  130.02    6.35
   1   4   8  139.40    6.58
   1   4   8  154.46    6.88
  -1  -4  -8  141.47    6.81
   1   4   8  137.65    6.54
  -1  -4  -8  140.41    6.67
  -1  -4  -8  141.22    7.23
  -1  -4  -8  137.35    6.82
  -1  -4  -8  137.80    7.44
   1   4   8  136.21    4.18
  -1  -4  -8  136.57    3.84
   1   4   8  142.45    6.63
  -1  -4  -8  146.54    4.08
   1   4   8  139.82    4.24
  -1  -4  -8  135.26    7.29
  -1  -4  -8  142.09    6.80
   1   4   8  135.72    4.22
   1   4   8  136.59    6.69
   1   4   8  138.75    4.17
  -1  -4  -9    2.47    0.61
   1   4   9    2.76    0.64
   1   4   9    2.22    0.73
   1   4   9    2.33    0.73
  -1  -4  -9    3.46    0.71
   1   4   9    2.09    0.66
  -1  -4  -9    1.94    0.70
   1   4   9    3.18    0.76
  -1  -4 -10  988.83   11.45
  -1  -4 -10  939.34    9.91
   1   4  10  960.27   11.15
  -1  -4 -10  968.66   11.44
   1   4  10  920.48   10.33
  -1  -4 -10  953.94   10.48
   1   4  10  969.18   11.47
   1   4  10  953.45   11.45
   1   4  10  923.58   11.41
   1   4  11    1.52    0.69
   1   4  11    1.67    0.54
  -1  -4 -11    1.95    0.69
   1   4  11    1.61    0.56
   1   4  11    0.38    0.40
  -1  -4 -11    1.44    0.65
  -1  -4 -11    1.20    0.47
  -1  -4 -11    0.83    0.62
   1   4  11    1.40    0.60
   1   4  11    1.77    0.68
  -1  -4 -12    1.08    0.52
  -1  -4 -12    0.97    0.53
   1   4  12    1.23    0.57
  -1  -4 -12    1.18    0.52
   1   4  12    1.85    0.56
  -1  -4 -12    1.00    0.39
  -1  -4 -12    1.46    0.52
   1   4  12    1.33    0.61
   1   4  13    4.97    0.66
  -1  -4 -13    7.87    0.79
  -1  -4 -13    7.49    0.73
  -1  -4 -13    7.68    0.77
   1   4  13    7.89    0.80
  -1  -4 -13    8.06    0.75
   1   4  13    8.23    0.83
  -1  -5   9    0.33    0.35
  -1  -5   9    0.37    0.36
   1   5  -9    0.09    0.36
   1   5  -9   -0.23    0.35
   1   5  -9    0.00    0.39
   1   5  -9    0.27    0.38
  -1  -5   8   18.99    1.25
   1   5  -8   18.57    1.34
  -1  -5   8   18.61    1.35
  -1  -5   8   18.69    1.36
  -1  -5   8   17.35    1.33
   1   5  -8   17.99    1.39
   1   5  -8   17.19    1.38
  -1  -5   8   18.18    1.19
   1   5  -8   19.32    1.47
   1   5  -8   17.89    1.44
  -1  -5   7   64.25    2.74
   1   5  -7   60.29    2.71
  -1  -5   7   61.11    2.55
   1   5  -7   62.21    2.79
  -1  -5   7   61.02    2.62
   1   5  -7   64.77    2.85
  -1  -5   7   60.93    2.49
   1   5  -7   65.33    2.93
  -1  -5   7   64.68    2.71
   1   5  -7   61.91    2.80
  -1  -5   6   94.99    3.50
  -1  -5   6   98.29    3.43
  -1  -5   6  102.55    3.53
   1   5  -6   95.04    3.65
   1   5  -6   91.83    3.65
  -1  -5   6   97.17    3.18
  -1  -5   6   92.06    3.34
   1   5  -6   92.74    3.54
  -1  -5   6   95.48    3.32
   1   5  -6   98.48    3.67
   1   5  -6   95.08    3.63
  -1  -5   5  107.15    3.50
   1   5  -5  106.29    3.91
   1   5  -5  112.35    4.06
  -1  -5   5  111.34    3.60
  -1  -5   5  112.00    3.69
   1   5  -5  113.29    3.90
   1   5  -5  109.46    3.85
  -1  -5   5  113.05    3.65
  -1  -5   5  110.31    3.78
  -1  -5   5  109.01    3.59
   1   5  -5  113.03    3.93
   1   5  -4  159.90    4.70
   1   5  -4  157.73    4.50
  -1  -5   4  165.95    7.92
  -1  -5   4  163.19    4.45
  -1  -5   4  153.30    4.19
   1   5  -4  159.32    4.72
  -1  -5   4  158.24    4.30
  -1  -5   4  156.92    7.45
   1   5  -4  167.27    7.87
  -1  -5   4  151.75    4.06
   1   5  -4  156.03    4.46
   1   5  -4  161.63    7.73
   1   5  -4  162.98    7.73
  -1  -5   4  153.60    4.05
   1   5  -4  167.83    8.20
   1   5  -4  156.37    4.46
   1   5  -4  155.73    7.39
   1   5  -4  166.97    7.78
  -1  -5   4  159.05    7.79
  -1  -5   4  163.51    7.74
  -1  -5   4  183.08    8.07
  -1  -5   4  171.88    7.79
  -1  -5   4  148.63    7.35
   1   5  -4  165.49    7.95
  -1  -5   4  164.83    7.63
   1   5  -3  161.24    7.64
  -1  -5   3  147.30    6.37
   1   5  -3  155.18    6.82
  -1  -5   3  169.00    7.34
   1   5  -3  165.23    7.28
   1   5  -3  157.43    7.39
  -1  -5   3  168.11    7.44
  -1  -5   3  152.39    7.20
  -1  -5   3  160.86    7.14
   1   5  -3  160.83    7.25
  -1  -5   3  158.77    7.07
  -1  -5   3  157.91    7.10
   1   5  -3  162.41    7.29
  -1  -5   3  151.48    7.03
   1   5  -3  145.98    6.78
   1   5  -3  157.39    7.23
   1   5  -3  161.26    7.19
  -1  -5   3  161.12    7.48
   1   5  -2 1911.02   23.79
   1   5  -2 1948.93   23.41
  -1  -5   2 1976.30   23.54
   1   5  -2 1963.54   23.77
  -1  -5   2 1924.53   22.67
  -1  -5   2 1947.16   23.43
   1   5  -2 1933.32   23.29
   1   5  -2 1995.61   24.82
  -1  -5   2 1961.02   23.42
  -1  -5   2 1944.72   24.27
   1   5  -2 1757.96   22.03
  -1  -5   2 1780.92   21.19
   1   5  -2 1824.93   21.65
   1   5  -2 1949.62   23.54
  -1  -5   2 1979.80   23.95
  -1  -5   2 1841.70   23.15
   1   5  -2 2016.90   24.13
  -1  -5   2 1803.63   23.17
  -1  -5   2 1992.22   23.56
   1   5  -1  330.22    9.06
   1   5  -1  330.05    9.13
   1   5  -1  341.18    9.38
   1   5  -1  341.93    9.74
   1   5  -1  338.69    9.30
   1   5  -1  323.20    8.18
  -1  -5   1  322.41    9.03
   1   5  -1  321.66    9.07
  -1  -5   1  323.23    9.02
  -1  -5   1  326.37    9.28
  -1  -5   1  348.17    9.38
  -1  -5   1  310.28    8.54
  -1  -5   1  338.75    9.27
  -1  -5   1  323.00    9.17
  -1  -5   1  321.53    9.01
   1   5  -1  318.44    8.87
   1   5  -1  326.91    9.27
  -1  -5   1  348.38    9.56
  -1  -5   1  330.45    9.48
   1   5   0   30.80    2.80
  -1  -5   0   30.48    2.70
   1   5   0   28.42    2.63
  -1  -5   0   27.50    2.65
  -1  -5   0   24.85    2.60
  -1  -5   0   24.82    2.55
   1   5   0   26.92    2.46
  -1  -5   0   28.53    2.57
   1   5   0   30.25    2.70
   1   5   0   28.57    2.59
  -1  -5   0   29.69    2.68
   1   5   0   27.11    2.67
  -1  -5   0   26.91    2.56
  -1  -5   0   25.07    2.47
  -1  -5   0   27.61    2.56
   1   5   0   28.83    2.66
   1   5   0   28.74    2.65
  -1  -5  -1  730.34   12.56
   1   5   1  726.99   12.64
   1   5   1  719.24   13.16
  -1  -5  -1  715.53   12.98
   1   5   1  728.26   12.69
  -1  -5  -1  721.01   12.73
  -1  -5  -1  705.19   12.41
   1   5   1  743.96   13.05
   1   5   1  716.26   12.60
  -1  -5  -1  718.74   12.40
  -1  -5  -1  664.44   12.31
   1   5   1  691.46   12.33
  -1  -5  -1  664.93   11.97
  -1  -5  -1  684.29   11.23
   1   5   1  681.56   11.43
  -1  -5  -1  715.75   13.32
   1   5   1  689.84   12.34
  -1  -5  -1  697.03   13.15
  -1  -5  -2  358.52    8.95
  -1  -5  -2  376.90    9.79
   1   5   2  375.33    9.07
   1   5   2  386.78    9.21
  -1  -5  -2  370.70    8.88
   1   5   2  377.77    9.27
  -1  -5  -2  388.46    9.10
  -1  -5  -2  368.45    9.43
  -1  -5  -2  384.13    9.22
  -1  -5  -2  356.75    8.55
   1   5   2  359.52    8.83
   1   5   2  387.65    9.21
  -1  -5  -2  385.94    9.36
   1   5   2  351.03    7.81
  -1  -5  -2  376.40    9.03
  -1  -5  -2  365.80    8.61
   1   5   2  370.20    8.97
   1   5   2  382.58    9.12
   1   5   3  685.40   12.52
  -1  -5  -3  692.26   12.25
  -1  -5  -3  664.81   11.98
  -1  -5  -3  676.10   12.09
   1   5   3  680.99   12.32
  -1  -5  -3  682.49   13.54
   1   5   3  666.94   12.18
   1   5   3  652.49   10.24
   1   5   3  667.84   12.22
  -1  -5  -3  670.74   12.21
  -1  -5  -3  678.68   12.51
   1   5   3  638.72   12.16
  -1  -5  -3  649.67   11.52
   1   5   3  658.29   12.10
  -1  -5  -3  656.11   12.95
  -1  -5  -3  676.77   12.59
   1   5   3  666.63   12.16
  -1  -5  -3  679.74   12.88
   1   5   3  684.27   12.89
  -1  -5  -4  265.55    7.95
   1   5   4  264.57    7.84
   1   5   4  255.10    8.17
   1   5   4  251.86    7.67
   1   5   4  262.62    7.83
  -1  -5  -4  260.47    8.04
   1   5   4  260.81    7.80
   1   5   4  260.19    7.13
  -1  -5  -4  262.28    7.75
  -1  -5  -4  263.19    7.47
  -1  -5  -4  259.87    7.71
  -1  -5  -4  257.84    8.02
   1   5   4  254.64    7.78
  -1  -5  -4  262.40    8.35
   1   5   4  252.63    7.81
  -1  -5  -4  261.39    8.57
  -1  -5  -4  259.72    8.31
   1   5   4  258.26    7.75
  -1  -5  -4  255.60    7.75
   1   5   5  301.09    8.69
   1   5   5  302.20    8.82
   1   5   5  310.20    8.83
   1   5   5  305.92    8.74
  -1  -5  -5  299.80    9.33
  -1  -5  -5  290.46    9.43
   1   5   5  287.77    8.65
   1   5   5  304.39    8.70
  -1  -5  -5  285.38    8.09
  -1  -5  -5  310.90    8.77
  -1  -5  -5  300.42    8.77
   1   5   5  308.50    8.76
  -1  -5  -5  303.00    8.73
  -1  -5  -5  306.60    9.09
  -1  -5  -5  303.81    9.29
  -1  -5  -5  317.71    9.77
   1   5   5  290.43    9.05
  -1  -5  -5  302.94    8.67
  -1  -5  -6  538.69   12.16
   1   5   6  567.40   12.56
  -1  -5  -6  562.79   12.79
  -1  -5  -6  535.38   13.21
   1   5   6  543.60   12.21
   1   5   6  532.42   12.52
  -1  -5  -6  551.22   13.76
  -1  -5  -6  558.67   12.38
   1   5   6  566.06   12.59
  -1  -5  -6  539.20   13.41
  -1  -5  -6  525.95   11.40
   1   5   6  562.83   12.44
  -1  -5  -6  551.75   13.03
   1   5   6  527.60   12.57
  -1  -5  -6  534.41   13.49
   1   5   6  562.62   12.37
   1   5   6  550.82   12.20
  -1  -5  -6  541.32   12.26
  -1  -5  -7   32.71    3.21
   1   5   7   26.37    2.90
  -1  -5  -7   22.21    1.60
  -1  -5  -7   25.71    3.18
  -1  -5  -7   26.85    3.09
   1   5   7   22.47    1.69
  -1  -5  -7   21.03    2.70
  -1  -5  -7   40.18    3.56
   1   5   7   24.56    2.76
   1   5   7   23.64    2.75
  -1  -5  -7   22.93    2.97
  -1  -5  -7   38.09    3.46
   1   5   7   27.73    2.96
   1   5   7   21.81    1.70
   1   5   7   20.85    2.69
  -1  -5  -7   43.45    3.65
   1   5   7   39.77    3.57
   1   5   7   20.49    1.58
  -1  -5  -7   20.09    2.95
   1   5   7   21.67    1.72
   1   5   7   44.52    3.76
   1   5   7   24.85    2.82
   1   5   8   66.47    2.98
   1   5   8   64.73    4.81
  -1  -5  -8   79.77    5.67
  -1  -5  -8   67.28    2.85
   1   5   8   65.20    3.06
   1   5   8   71.07    3.04
  -1  -5  -8   76.75    5.34
  -1  -5  -8   62.70    4.89
   1   5   8   78.33    5.14
   1   5   8   73.11    4.95
  -1  -5  -8   68.93    4.85
  -1  -5  -8   70.79    4.94
  -1  -5  -8   76.27    5.10
  -1  -5  -8   74.16    5.08
  -1  -5  -8   71.85    2.99
   1   5   8   72.69    4.90
   1   5   8   75.47    5.07
   1   5   8   67.15    3.06
   1   5   8   72.18    4.93
   1   5   8   70.33    4.89
  -1  -5  -8   54.80    4.92
  -1  -5  -8   66.01    5.37
   1   5   8   63.86    2.77
   1   5   8   64.13    2.89
   1   5   8   67.00    4.76
   1   5   9  310.19    6.66
   1   5   9  312.51    6.65
   1   5   9  309.55    6.51
  -1  -5  -9  320.57    6.17
  -1  -5  -9  328.18    6.39
   1   5   9  315.76    6.48
   1   5  10  176.29    4.89
  -1  -5 -10  188.14    4.96
  -1  -5 -10  182.45    4.46
  -1  -5 -10  185.30    4.68
   1   5  10  187.40    5.02
   1   5  10  187.23    5.06
  -1  -5 -10  192.47    4.93
   1   5  10  178.62    4.87
   1   5  11  102.24    3.45
  -1  -5 -11  102.35    3.00
  -1  -5 -11  101.09    3.18
  -1  -5 -11  111.98    3.52
   1   5  11  106.90    3.45
   1   5  11  101.36    3.23
   1   5  11  104.06    3.50
  -1  -5 -11  110.04    3.54
   1   5  11  110.23    3.63
   1   5  12   23.84    1.36
   1   5  12   19.10    1.28
  -1  -5 -12   24.75    1.50
  -1  -5 -12   26.07    1.55
  -1  -5 -12   25.15    1.41
  -1  -5 -12   23.42    1.28
  -1  -5 -12   25.44    1.53
   1   5  12   23.94    1.28
   1   5  12   25.40    1.57
   1   5  12   25.67    1.59
  -1  -5 -13  200.26    3.18
  -1  -5 -13  204.81    3.27
   1   5  13  202.23    3.36
  -1  -5 -13  205.69    3.27
   1   5  13  202.88    3.38
  -1  -6   8   35.39    1.32
   1   6  -8   36.12    1.45
   1   6  -8   35.60    1.48
   1   6  -8   37.68    1.48
  -1  -6   8   31.45    1.13
  -1  -6   8   37.43    1.36
  -1  -6   8   38.49    1.54
   1   6  -8   38.42    1.58
  -1  -6   8   36.96    1.43
   1   6  -8   34.38    1.34
  -1  -6   7    3.66    0.65
   1   6  -7    2.08    0.59
  -1  -6   7    1.74    0.47
  -1  -6   7    1.65    0.57
  -1  -6   7    1.91    0.52
   1   6  -7    2.32    0.62
   1   6  -7    2.40    0.59
   1   6  -7    1.51    0.49
  -1  -6   7    1.93    0.48
   1   6  -7    1.24    0.48
  -1  -6   6    3.52    0.80
  -1  -6   6    4.08    0.78
   1   6  -6    3.44    0.76
  -1  -6   6    3.12    0.60
   1   6  -6    3.35    0.75
  -1  -6   6    3.22    0.67
   1   6  -6    3.31    0.80
   1   6  -6    3.46    0.81
  -1  -6   6    3.55    0.67
  -1  -6   6    1.90    0.55
   1   6  -6    4.27    0.81
  -1  -6   5  144.59    4.29
  -1  -6   5  147.49    3.99
  -1  -6   5  153.61    4.02
   1   6  -5  152.77    4.41
  -1  -6   5  153.52    4.02
  -1  -6   5  149.68    4.20
   1   6  -5  147.20    4.30
  -1  -6   5  150.25    4.22
   1   6  -5  146.26    4.26
   1   6  -5  152.48    4.66
   1   6  -5  149.18    4.58
   1   6  -4   10.08    1.31
  -1  -6   4    9.84    1.21
  -1  -6   4   15.03    1.29
   1   6  -4    9.88    1.22
   1   6  -4   10.04    1.17
  -1  -6   4    8.80    1.13
   1   6  -4    9.85    1.19
  -1  -6   4   15.61    1.39
  -1  -6   4    9.28    1.05
  -1  -6   4   11.69    1.25
   1   6  -4   10.42    1.20
   1   6  -4   10.31    1.36
  -1  -6   3  188.01    4.84
  -1  -6   3  192.77    4.60
   1   6  -3  193.82    5.02
   1   6  -3  188.46    5.28
   1   6  -3  181.50    4.94
  -1  -6   3  188.85    4.78
  -1  -6   3  200.60    4.92
   1   6  -3  192.35    5.26
   1   6  -3  179.98    4.80
  -1  -6   3  191.49    4.83
   1   6  -3  187.71    4.33
   1   6  -3  188.40    4.84
   1   6  -2    7.41    1.69
   1   6  -2    4.98    1.54
  -1  -6   2    5.16    0.86
   1   6  -2    6.44    1.62
  -1  -6   2    8.03    1.05
   1   6  -2    4.15    0.82
   1   6  -2    4.02    0.74
  -1  -6   2    4.10    1.20
   1   6  -2    4.38    0.85
   1   6  -2    3.04    0.69
   1   6  -2    3.06    1.18
  -1  -6   2    2.26    1.07
   1   6  -2    4.69    0.91
   1   6  -2    4.58    1.40
  -1  -6   2    6.02    1.58
  -1  -6   2    6.31    1.69
  -1  -6   2    5.44    1.56
  -1  -6   2    6.36    1.74
  -1  -6   2    4.07    0.73
   1   6  -2    4.53    0.78
   1   6  -2    6.47    1.55
  -1  -6   2    4.12    0.80
  -1  -6   2    6.06    1.61
   1   6  -2    3.50    1.33
  -1  -6   2    3.72    1.30
  -1  -6   2    4.36    0.81
   1   6  -2    3.16    0.61
   1   6  -2    4.21    0.78
   1   6  -2    2.28    1.06
  -1  -6   1    7.89    1.00
  -1  -6   1    8.87    1.00
  -1  -6   1    9.45    1.05
  -1  -6   1   12.06    1.25
   1   6  -1    8.89    0.98
   1   6  -1    9.64    1.13
   1   6  -1   12.10    2.19
   1   6  -1    9.54    1.15
   1   6  -1   10.62    2.00
   1   6  -1   11.81    2.08
   1   6  -1    8.38    1.11
  -1  -6   1    6.87    1.55
  -1  -6   1    9.69    1.98
   1   6  -1    9.14    1.81
   1   6  -1   11.94    2.16
   1   6  -1    9.93    1.10
  -1  -6   1   11.35    2.03
  -1  -6   1   10.12    1.69
  -1  -6   1   10.11    1.93
  -1  -6   1    9.06    1.02
  -1  -6   1   10.44    1.91
   1   6  -1   13.04    2.11
  -1  -6   1   12.64    2.23
  -1  -6   1   10.93    1.98
  -1  -6   1    8.67    1.77
  -1  -6   1   11.11    2.13
   1   6  -1   10.97    1.28
   1   6  -1   11.51    2.13
   1   6  -1   11.00    1.96
  -1  -6   0   77.25    4.99
  -1  -6   0   81.68    5.01
   1   6   0   73.44    4.85
  -1  -6   0   71.32    4.89
   1   6   0   78.70    5.20
   1   6   0   80.96    5.06
  -1  -6   0   74.58    4.80
  -1  -6   0   76.05    4.88
  -1  -6   0   72.54    5.09
  -1  -6   0   73.75    5.00
   1   6   0   68.54    4.63
  -1  -6   0   75.01    4.81
   1   6   0   71.89    4.57
   1   6   0   79.34    5.12
   1   6   0   81.68    5.10
  -1  -6   0   69.01    4.56
   1   6   0   78.54    5.00
  -1  -6   0   68.27    4.45
   1   6   1 1054.80   17.69
   1   6   1 1046.40   17.79
  -1  -6  -1 1032.20   17.45
  -1  -6  -1 1012.34   17.17
  -1  -6  -1  992.07   18.21
  -1  -6  -1 1022.37   17.91
   1   6   1 1043.73   17.69
  -1  -6  -1 1029.43   17.28
  -1  -6  -1 1051.19   17.81
   1   6   1  965.64   16.83
   1   6   1 1026.38   18.06
   1   6   1 1029.60   17.53
   1   6   1 1037.23   17.56
  -1  -6  -1  988.66   18.06
  -1  -6  -1  930.71   16.49
  -1  -6  -1  962.21   16.38
   1   6   1  986.74   16.02
  -1  -6  -2   24.04    2.70
   1   6   2   27.49    2.91
   1   6   2   30.09    3.01
  -1  -6  -2   25.47    2.71
  -1  -6  -2   24.37    2.91
   1   6   2   27.57    2.92
   1   6   2   29.21    3.03
  -1  -6  -2   28.52    3.08
   1   6   2   23.16    2.35
  -1  -6  -2   21.70    2.42
  -1  -6  -2   29.18    2.97
  -1  -6  -2   25.60    2.80
  -1  -6  -2   26.41    2.82
  -1  -6  -2   26.48    2.81
   1   6   2   24.03    2.70
   1   6   2   27.35    2.89
   1   6   2   29.64    2.98
   1   6   3  425.90   11.18
   1   6   3  426.06   11.09
  -1  -6  -3  415.54   11.01
   1   6   3  440.32   11.30
  -1  -6  -3  402.48   11.58
  -1  -6  -3  390.10   10.75
   1   6   3  416.79   11.24
   1   6   3  398.39   10.85
  -1  -6  -3  401.86   11.30
  -1  -6  -3  416.87   10.85
  -1  -6  -3  414.71   11.14
   1   6   3  425.95   11.09
  -1  -6  -3  402.12   10.06
  -1  -6  -3  377.22   10.43
   1   6   3  429.64   11.35
  -1  -6  -3  420.30   10.91
  -1  -6  -3  403.14   11.82
   1   6   4  178.31    7.27
  -1  -6  -4  184.92    8.16
  -1  -6  -4  188.23    7.49
  -1  -6  -4  180.20    7.23
   1   6   4  181.36    7.49
  -1  -6  -4  182.64    7.65
   1   6   4  194.99    7.61
   1   6   4  181.10    7.39
  -1  -6  -4  183.25    7.93
  -1  -6  -4  180.77    7.41
   1   6   4  175.39    7.31
  -1  -6  -4  159.93    7.05
  -1  -6  -4  170.11    7.37
  -1  -6  -4  179.68    7.26
   1   6   4  184.70    7.41
   1   6   4  180.71    7.34
  -1  -6  -5   65.65    4.52
  -1  -6  -5   69.33    2.73
   1   6   5   69.17    4.64
  -1  -6  -5   60.79    4.82
   1   6   5   66.91    4.59
   1   6   5   64.08    4.48
  -1  -6  -5   64.92    4.66
  -1  -6  -5   66.12    4.77
  -1  -6  -5   69.08    4.62
  -1  -6  -5   69.09    4.67
  -1  -6  -5   67.98    4.64
   1   6   5   59.61    4.43
   1   6   5   65.23    2.88
   1   6   5   66.86    4.52
  -1  -6  -5   70.60    5.00
   1   6   5   68.96    4.68
  -1  -6  -5   59.74    4.64
   1   6   5   67.33    4.59
   1   6   5   62.66    2.86
  -1  -6  -6  599.38   14.02
  -1  -6  -6  612.61    8.03
  -1  -6  -6  592.84   13.99
   1   6   6  611.28    9.00
   1   6   6  609.00   14.11
   1   6   6  596.85   13.98
  -1  -6  -6  616.45   15.47
  -1  -6  -6  609.14   14.23
  -1  -6  -6  622.65   15.60
  -1  -6  -6  610.80   15.87
   1   6   6  604.64   14.11
  -1  -6  -6  624.94   14.80
  -1  -6  -6  618.88    8.25
   1   6   6  582.00   14.11
   1   6   6  596.40   14.12
  -1  -6  -6  612.29   15.04
   1   6   6  594.45   14.15
   1   6   6  614.61    8.93
   1   6   6  597.48   14.81
  -1  -6  -6  612.16   15.23
   1   6   6  610.13    9.07
   1   6   6  615.88    9.04
   1   6   6  608.23   14.06
   1   6   7    8.61    1.07
   1   6   7   13.12    2.10
  -1  -6  -7    9.40    1.10
  -1  -6  -7    9.29    1.06
  -1  -6  -7    9.24    1.98
  -1  -6  -7    9.68    1.08
   1   6   7    8.98    1.16
   1   6   7   10.57    1.26
   1   6   7    8.54    1.17
   1   6   7    9.63    1.70
  -1  -6  -7    9.65    2.14
   1   6   7    8.99    1.81
  -1  -6  -7   12.37    2.24
   1   6   7   13.10    2.34
  -1  -6  -7   11.99    2.23
  -1  -6  -7   10.16    1.92
  -1  -6  -7   12.85    2.18
   1   6   7   10.24    1.88
   1   6   7   14.09    2.29
  -1  -6  -7   11.10    2.19
   1   6   7    9.00    1.18
  -1  -6  -7   12.40    2.28
   1   6   7    7.79    1.73
  -1  -6  -7   12.18    2.32
   1   6   8    0.99    0.56
  -1  -6  -8    0.49    0.37
  -1  -6  -8    0.38    0.48
   1   6   8   -0.10    0.41
   1   6   8    1.16    0.52
   1   6   8    0.67    0.45
   1   6   8    0.57    0.56
  -1  -6  -8    1.10    0.56
   1   6   8    1.49    0.68
   1   6   9  443.46    7.55
  -1  -6  -9  464.35    7.43
   1   6   9  455.23    8.03
  -1  -6  -9  466.86    7.66
   1   6   9  462.60    7.26
   1   6   9  440.53    7.37
   1   6   9  463.55    8.06
   1   6  10   49.63    2.47
  -1  -6 -10   49.06    2.47
  -1  -6 -10   50.85    2.34
  -1  -6 -10   52.09    2.40
  -1  -6 -10   53.85    2.49
   1   6  10   54.60    2.68
   1   6  10   49.00    2.54
   1   6  10   46.54    2.34
   1   6  11    1.71    0.59
   1   6  11    0.40    0.39
  -1  -6 -11    1.00    0.51
  -1  -6 -11    0.53    0.38
  -1  -6 -11    1.19    0.52
   1   6  11    1.07    0.54
  -1  -6 -11    0.33    0.52
   1   6  11    2.15    0.64
   1   6  11    0.70    0.52
  -1  -6 -12  129.28    2.46
  -1  -6 -12  135.16    3.05
  -1  -6 -12  140.87    2.97
  -1  -6 -12  137.62    3.13
   1   6  12  136.24    2.97
  -1  -6 -12  124.02    2.46
   1   6  12  130.74    3.05
   1   6  12  117.98    2.55
  -1  -6 -12  140.03    2.89
   1   6  12  139.41    3.19
  -1  -6 -13    0.94    0.32
   1   7  -7    0.76    0.38
  -1  -7   7    1.15    0.39
  -1  -7   7    0.92    0.36
  -1  -7   7    0.74    0.32
   1   7  -7    1.01    0.37
  -1  -7   6   35.39    1.39
  -1  -7   6   36.83    1.71
  -1  -7   6   37.32    1.67
   1   7  -6   37.08    1.56
  -1  -7   6   35.49    1.58
   1   7  -6   38.04    1.81
   1   7  -6   37.44    1.82
   1   7  -6   36.16    1.57
  -1  -7   5    6.43    0.91
   1   7  -5    6.79    1.00
  -1  -7   5    6.46    0.89
  -1  -7   5    5.74    0.85
   1   7  -5    6.68    0.86
  -1  -7   5    7.43    0.86
   1   7  -5    5.96    0.95
   1   7  -5    6.50    0.87
  -1  -7   4   46.95    2.26
  -1  -7   4   49.30    2.37
   1   7  -4   48.23    2.36
   1   7  -4   44.54    2.21
  -1  -7   4   50.12    2.35
   1   7  -4   48.90    2.57
   1   7  -4   47.07    2.53
  -1  -7   4   48.85    2.10
   1   7  -4   48.26    2.25
   1   7  -4   45.82    2.21
  -1  -7   4   48.48    2.32
  -1  -7   3   28.40    1.88
  -1  -7   3   27.18    1.75
   1   7  -3   27.48    1.62
  -1  -7   3   28.70    1.87
   1   7  -3   28.54    1.92
   1   7  -3   27.83    1.82
   1   7  -3   28.24    2.06
  -1  -7   3   26.90    1.82
   1   7  -3   28.63    2.08
  -1  -7   3   27.40    1.86
   1   7  -3   26.88    1.76
   1   7  -2  197.81    5.22
  -1  -7   2  196.31    4.85
  -1  -7   2  196.31    4.76
   1   7  -2  199.08    4.86
  -1  -7   2  199.10    4.97
  -1  -7   2  198.73    4.95
   1   7  -2  197.28    5.33
  -1  -7   2  204.61    4.91
   1   7  -2  193.47    4.96
   1   7  -2  201.97    4.56
   1   7  -2  205.21    4.81
   1   7  -2  196.80    5.42
   1   7  -1   65.60    3.11
  -1  -7   1   69.79    2.97
  -1  -7   1   61.95    2.65
  -1  -7   1   64.47    2.80
   1   7  -1   64.38    3.07
   1   7  -1   66.89    3.07
  -1  -7   1   65.03    2.74
   1   7  -1   62.38    2.74
  -1  -7   1   66.78    2.89
   1   7  -1   65.51    2.99
   1   7  -1   65.74    2.68
   1   7   0  158.68    4.22
  -1  -7   0  163.60    4.49
  -1  -7   0  149.07    4.24
   1   7   0  160.14    4.78
  -1  -7   0  161.53    4.15
   1   7   0  162.49    4.78
   1   7   0  153.85    4.67
   1   7   0  153.86    4.23
   1   7   0  162.19    4.84
  -1  -7   0  168.95    4.50
  -1  -7   0  147.45    7.78
   1   7   1   61.63    2.98
  -1  -7  -1   60.81    2.71
   1   7   1   63.49    3.05
   1   7   1   61.66    2.92
   1   7   1   61.55    2.93
   1   7   1   68.95    5.10
  -1  -7  -1   66.42    5.08
   1   7   1   64.40    4.92
  -1  -7  -1   61.44    5.08
   1   7   1   64.63    4.98
  -1  -7  -1   65.94    4.87
  -1  -7  -1   62.46    2.69
   1   7   1   60.66    2.66
   1   7   1   66.76    5.04
  -1  -7  -1   59.79    4.81
  -1  -7  -1   61.69    2.72
  -1  -7  -1   74.16    5.21
   1   7   1   61.41    2.64
  -1  -7  -1   67.56    5.30
  -1  -7  -1   67.36    5.02
   1   7   1   68.30    5.21
   1   7   1   59.66    4.70
   1   7   1   66.41    4.97
   1   7   2    4.94    1.50
  -1  -7  -2    3.75    0.75
   1   7   2    5.12    0.91
  -1  -7  -2    4.17    0.82
   1   7   2    5.10    0.93
  -1  -7  -2    4.31    1.51
   1   7   2    2.71    1.21
   1   7   2    2.71    1.22
  -1  -7  -2    1.47    1.04
  -1  -7  -2    5.22    1.57
  -1  -7  -2    4.87    1.63
  -1  -7  -2    4.32    1.57
  -1  -7  -2    5.72    1.47
  -1  -7  -2    4.41    0.77
   1   7   2    4.91    1.51
  -1  -7  -2    4.48    1.53
   1   7   2    8.32    1.85
   1   7   2    8.56    1.14
   1   7   2    5.20    0.95
   1   7   2    4.44    0.80
   1   7   2    4.83    1.34
  -1  -7  -2    5.15    0.86
  -1  -7  -3  116.72    3.61
   1   7   3  119.16    6.61
  -1  -7  -3  127.70    6.69
  -1  -7  -3  115.82    3.61
  -1  -7  -3  113.86    7.01
   1   7   3  119.29    3.81
  -1  -7  -3  115.33    6.76
  -1  -7  -3  124.56    3.85
   1   7   3  121.94    4.01
   1   7   3  124.95    6.54
   1   7   3  110.36    6.30
   1   7   3  114.44    4.03
   1   7   3  119.53    3.92
   1   7   3  121.45    6.60
   1   7   3  125.90    6.72
   1   7   3  120.23    4.16
  -1  -7  -3   97.59    6.02
  -1  -7  -3  119.66    6.49
   1   7   3  127.60    6.78
  -1  -7  -3  121.11    6.71
  -1  -7  -3  123.36    6.69
  -1  -7  -3  115.70    3.49
  -1  -7  -3  121.31    7.08
   1   7   3  114.24    3.84
   1   7   3  120.85    6.72
   1   7   3  122.52    6.65
   1   7   4  320.27   10.75
  -1  -7  -4  347.23    6.39
  -1  -7  -4  342.04   11.11
   1   7   4  334.48   10.94
   1   7   4  329.72    6.58
  -1  -7  -4  346.49    6.42
  -1  -7  -4  331.51    5.93
   1   7   4  321.11   10.73
   1   7   4  332.43    6.87
  -1  -7  -4  341.40   10.99
  -1  -7  -4  320.47   11.76
   1   7   4  327.84   11.09
  -1  -7  -4  302.02   10.32
   1   7   4  329.62    6.85
   1   7   4  324.12   10.90
  -1  -7  -4  331.31   10.85
   1   7   4  327.90   10.87
   1   7   4  327.29   11.00
  -1  -7  -4  343.73   11.26
   1   7   4  327.43    6.58
   1   7   4  333.41    6.56
  -1  -7  -4  339.87   11.59
  -1  -7  -4  320.24   11.51
   1   7   4  332.56    6.44
  -1  -7  -5   38.25    2.19
  -1  -7  -5   36.91    2.12
   1   7   5   38.37    2.38
   1   7   5   38.36    2.30
   1   7   5   39.86    2.27
   1   7   5   36.06    2.32
   1   7   5   40.61    2.38
  -1  -7  -6  157.47    4.35
  -1  -7  -6  159.96    4.33
   1   7   6  162.84    4.81
   1   7   6  153.22    4.64
   1   7   6  158.42    4.71
   1   7   6  158.62    4.72
   1   7   7  247.33    5.96
   1   7   7  237.00    5.64
  -1  -7  -7  253.06    5.41
   1   7   7  242.25    5.46
  -1  -7  -7  236.87    5.51
  -1  -7  -7  247.13    5.25
   1   7   7  232.74    5.67
  -1  -7  -7  245.69    5.51
   1   7   7  234.82    5.79
   1   7   8    1.87    0.59
  -1  -7  -8    1.65    0.49
   1   7   8    1.75    0.63
   1   7   8    3.53    0.88
   1   7   8    0.92    0.45
  -1  -7  -8    2.48    0.74
  -1  -7  -8    3.40    0.79
  -1  -7  -8    2.02    0.62
   1   7   8    2.88    0.81
   1   7   9  129.93    3.73
  -1  -7  -9  126.82    3.33
  -1  -7  -9  131.97    3.84
  -1  -7  -9  120.67    3.39
   1   7   9  133.58    4.16
   1   7   9  125.05    3.60
  -1  -7  -9  137.00    3.93
   1   7   9  133.16    4.16
   1   7   9  125.49    3.49
   1   7  10   34.56    1.99
  -1  -7 -10   32.26    1.76
  -1  -7 -10   32.16    1.80
  -1  -7 -10   32.37    1.61
  -1  -7 -10   31.19    1.79
   1   7  10   31.87    1.92
   1   7  10   31.72    1.68
   1   7  10   30.92    1.71
  -1  -7 -11   43.53    1.80
  -1  -7 -11   40.39    1.53
  -1  -7 -11   41.03    1.67
   1   7  11   40.82    1.86
  -1  -7 -11   42.00    1.79
   1   7  11   43.57    1.90
   1   7  11   40.20    1.65
   1   7  11   41.24    1.73
   1   7  12   12.19    0.78
  -1  -7 -12   12.39    0.82
  -1  -7 -12    9.88    0.70
  -1  -7 -12   12.51    0.77
   1   7  12    9.38    0.68
  -1  -8   5   11.27    0.81
   1   8  -5   10.94    0.89
  -1  -8   5    9.12    0.66
  -1  -8   5   10.24    0.80
   1   8  -5   10.85    0.89
  -1  -8   5   10.39    0.79
  -1  -8   4   16.89    1.14
  -1  -8   4   16.32    0.95
   1   8  -4   16.66    1.28
  -1  -8   4   15.94    1.12
   1   8  -4   15.92    1.25
  -1  -8   4   16.29    1.14
  -1  -8   4   16.40    1.17
  -1  -8   3   30.61    1.70
  -1  -8   3   28.97    1.53
   1   8  -3   29.44    1.66
  -1  -8   3   29.32    1.63
  -1  -8   3   30.08    1.72
  -1  -8   3   29.63    1.65
   1   8  -3   31.61    1.92
   1   8  -3   29.64    1.82
  -1  -8   2   56.34    2.48
   1   8  -2   58.42    2.73
  -1  -8   2   56.27    2.36
  -1  -8   2   57.77    2.37
  -1  -8   2   57.08    2.15
   1   8  -2   54.32    2.48
   1   8  -2   56.11    2.37
   1   8  -2   56.06    2.64
  -1  -8   2   57.53    2.48
  -1  -8   2   59.31    2.39
  -1  -8   1  295.24    5.82
  -1  -8   1  294.83    5.34
  -1  -8   1  289.14    5.63
   1   8  -1  289.18    6.21
   1   8  -1  296.24    6.17
  -1  -8   1  291.58    5.30
   1   8  -1  286.64    6.02
  -1  -8   1  289.72    5.38
   1   8  -1  285.54    5.86
  -1  -8   1  301.18    5.79
   1   8   0    2.81    0.80
  -1  -8   0    3.20    0.79
  -1  -8   0    5.09    0.90
  -1  -8   0    2.66    0.66
   1   8   0    3.14    0.81
   1   8   0    2.97    0.79
  -1  -8   0    2.86    0.71
  -1  -8   0    3.48    0.66
  -1  -8   0    2.19    0.53
   1   8   0    3.10    0.81
  -1  -8  -1   57.80    2.65
  -1  -8  -1   57.56    2.45
  -1  -8  -1   57.23    2.59
   1   8   1   53.36    2.77
   1   8   1   55.39    2.84
   1   8   1   59.73    2.86
   1   8   1   58.51    2.86
  -1  -8  -1   57.70    2.60
  -1  -8  -1   60.00    2.69
  -1  -8  -2  158.67    4.32
  -1  -8  -2  163.18    4.24
  -1  -8  -2  161.46    4.36
  -1  -8  -2  160.68    4.39
   1   8   2  152.70    4.73
   1   8   2  162.86    4.65
   1   8   2  156.49    4.77
   1   8   2  172.61    4.79
  -1  -8  -2  161.21    4.24
  -1  -8  -3    0.52    0.51
  -1  -8  -3    1.56    0.55
  -1  -8  -3    0.76    0.51
   1   8   3    1.34    0.59
   1   8   3    0.69    0.56
   1   8   3    0.92    0.51
   1   8   3    0.85    0.45
  -1  -8  -3    1.94    0.58
  -1  -8  -3    1.85    0.62
   1   8   3    0.46    0.43
  -1  -8  -4   16.09    1.44
   1   8   4   18.76    1.54
  -1  -8  -4   16.33    1.39
   1   8   4   17.05    1.51
   1   8   4   15.96    1.49
   1   8   4   17.48    1.66
   1   8   4   15.80    1.48
  -1  -8  -4   15.11    1.42
  -1  -8  -4   17.70    1.38
   1   8   4   16.62    1.62
  -1  -8  -5  325.96    5.60
   1   8   5  320.86    6.51
  -1  -8  -5  321.98    6.21
   1   8   5  322.50    6.75
   1   8   5  324.34    6.29
   1   8   5  326.84    6.80
   1   8   5  313.22    6.31
  -1  -8  -5  323.76    6.22
  -1  -8  -6   53.42    2.51
  -1  -8  -6   51.09    2.48
  -1  -8  -6   51.69    2.44
   1   8   6   52.74    2.69
   1   8   6   51.23    2.59
   1   8   6   49.93    2.63
  -1  -8  -6   51.92    2.35
   1   8   6   53.06    2.66
  -1  -8  -7  165.69    4.34
  -1  -8  -7  166.37    4.19
   1   8   7  165.72    4.55
   1   8   7  163.10    4.46
  -1  -8  -7  168.60    4.23
   1   8   7  158.95    4.46
  -1  -8  -7  165.91    4.09
   1   8   7  163.52    4.55
   1   8   7  156.20    4.15
  -1  -8  -8   18.37    1.34
   1   8   8   18.45    1.53
  -1  -8  -8   18.09    1.44
  -1  -8  -8   19.47    1.31
   1   8   8   18.78    1.48
  -1  -8  -8   18.46    1.39
   1   8   8   17.71    1.41
   1   8   8   18.69    1.56
   1   8   9   10.94    0.96
  -1  -8  -9   10.17    1.04
  -1  -8  -9   11.14    1.04
   1   8   9   11.40    1.15
  -1  -8  -9   10.03    0.89
  -1  -8  -9    9.93    0.96
   1   8   9   12.30    1.20
  -1  -8 -10  119.68    2.86
  -1  -8 -10  118.16    2.83
   1   8  10  119.06    3.08
   1   8  10  123.63    3.15
  -1  -8 -10  114.37    2.66
  -1  -8 -11    1.31    0.33
  -1  -8 -11    1.14    0.35
  -1  -8 -11    1.23    0.38
  -1  -8 -11    1.04    0.35
   1   8  11    1.13    0.40
   1   8  11    1.74    0.44
   1   8  11    0.12    0.23
  -1  -9   3   20.31    1.02
   1   9  -3   18.97    1.06
  -1  -9   3   19.31    0.97
   1   9  -3   18.24    1.02
  -1  -9   3   17.46    0.85
  -1  -9   2    1.19    0.41
   1   9  -2    0.81    0.42
   1   9  -2    2.23    0.53
  -1  -9   2    1.79    0.41
  -1  -9   2    1.34    0.46
  -1  -9   2    1.09    0.43
   1   9  -2    1.31    0.49
  -1  -9   1  575.20    6.71
  -1  -9   1  571.15    6.45
   1   9  -1  560.64    6.92
   1   9  -1  542.70    6.65
   1   9  -1  557.31    6.98
  -1  -9   1  548.48    5.53
  -1  -9   1  570.95    6.57
  -1  -9   1  559.89    5.69
   1   9  -1  540.66    6.21
  -1  -9   0  343.74    5.48
  -1  -9   0  338.49    5.37
  -1  -9   0  333.29    4.99
   1   9   0  337.63    5.64
   1   9   0  337.82    5.69
   1   9   0  330.81    5.52
  -1  -9   0  340.79    5.32
   1   9   0  326.98    5.67
  -1  -9  -1  202.14    4.33
   1   9   1  194.30    4.43
  -1  -9  -1  194.33    4.12
   1   9   1  194.96    4.62
  -1  -9  -1  198.82    4.29
  -1  -9  -1  202.42    3.74
  -1  -9  -1  199.25    4.16
   1   9   1  192.29    3.91
   1   9   1  191.52    4.51
   1   9   1  199.30    4.49
  -1  -9  -2  372.87    5.85
  -1  -9  -2  362.62    5.48
  -1  -9  -2  373.81    5.91
   1   9   2  366.24    6.13
  -1  -9  -2  366.61    5.91
   1   9   2  375.21    6.13
   1   9   2  372.01    6.53
  -1  -9  -2  366.43    5.59
   1   9   2  354.34    6.39
  -1  -9  -3   86.07    2.80
  -1  -9  -3   87.41    2.65
   1   9   3   83.96    3.20
  -1  -9  -3   86.57    2.97
   1   9   3   88.11    3.26
  -1  -9  -3   90.69    2.90
   1   9   3   86.79    2.96
  -1  -9  -3   87.89    2.67
   1   9   3   85.92    2.87
  -1  -9  -3   85.10    2.75
   1   9   4    7.45    0.92
  -1  -9  -4    7.90    0.96
  -1  -9  -4    7.98    0.89
  -1  -9  -4    8.39    0.89
  -1  -9  -4    8.01    1.03
   1   9   4    7.57    0.88
   1   9   4    8.17    1.14
   1   9   4    8.02    0.94
  -1  -9  -4    8.04    0.83
   1   9   4    8.08    1.10
  -1  -9  -5  105.58    2.78
  -1  -9  -5  104.01    3.04
  -1  -9  -5  107.47    3.24
   1   9   5  108.41    3.51
   1   9   5  109.90    3.54
  -1  -9  -5  108.45    3.18
   1   9   5  103.30    3.03
   1   9   5  103.95    3.17
  -1  -9  -6    2.22    0.57
  -1  -9  -6    2.70    0.63
   1   9   6    2.43    0.58
   1   9   6    3.09    0.72
  -1  -9  -6    2.03    0.48
  -1  -9  -6    2.87    0.67
   1   9   6    3.57    0.75
   1   9   6    2.70    0.61
   1   9   6    1.87    0.59
  -1  -9  -7    1.22    0.43
  -1  -9  -7    1.09    0.48
  -1  -9  -7    1.58    0.50
   1   9   7    1.44    0.55
  -1  -9  -7    0.81    0.48
   1   9   7    1.39    0.53
   1   9   7    1.27    0.54
   1   9   7    1.05    0.42
   1   9   7    1.08    0.57
  -1  -9  -8  436.32    5.27
   1   9   8  431.51    5.39
  -1  -9  -8  439.56    4.89
   1   9   8  433.53    5.56
   1   9   8  432.32    5.69
  -1  -9  -8  427.19    5.46
  -1  -9  -8  421.95    4.91
   1   9   8  440.59    5.81
  -1  -9  -9   50.13    1.47
  -1  -9  -9   52.32    1.72
  -1  -9  -9   50.07    1.53
   1   9   9   50.91    1.78
   1   9   9   51.36    1.79
  -1 -10   0    1.79    0.34
  -1 -10   0    1.82    0.38
  -1 -10  -1  119.41    2.32
  -1 -10  -1  122.41    2.42
  -1 -10  -1  112.72    2.04
  -1 -10  -1   95.87    1.90
   1  10   1  113.47    2.32
   1  10   1  120.79    2.52
   1  10   1  103.26    2.08
   1  10   1   90.20    1.92
  -1 -10  -2   -0.05    0.25
   1  10   2   -0.09    0.38
  -1 -10  -2    0.19    0.30
   1  10   2   -0.24    0.41
  -1 -10  -2    0.34    0.35
   1  10   2    0.27    0.22
  -1 -10  -3   43.75    1.50
  -1 -10  -3   39.62    1.52
   1  10   3   41.37    1.70
  -1 -10  -3   38.55    1.31
   1  10   3   40.52    1.68
  -1 -10  -3   36.12    1.23
  -1 -10  -4   92.76    2.16
  -1 -10  -4   96.66    2.07
   1  10   4   95.05    2.55
  -1 -10  -4   94.70    2.36
   1  10   4   96.94    2.58
  -1 -10  -5  106.71    2.42
   1  10   5  106.31    2.61
  -1 -10  -5  103.83    2.31
  -1 -10  -5   84.85    1.76
   1  10   5   82.33    2.22
   1  10   5  104.32    2.60
   1  10   6  125.42    2.63
   1  10   6  127.74    2.64
  -1 -10  -6  121.63    2.40
  -1 -10  -6  128.10    2.47
  -1 -10  -7  129.34    2.22
   1  10   7  123.58    2.23
   2  -9  -6   35.46    1.12
  -2   9   6   35.62    1.20
   2  -9  -5  105.73    2.06
  -2   9   5  110.88    2.30
   2  -9  -4   20.38    0.84
   2  -9  -4   22.66    0.95
  -2   9   4   23.44    1.01
   2  -9  -4   24.76    1.03
   2  -9  -4   24.19    0.98
   2  -9  -4   26.22    1.05
  -2   9   4   27.13    1.20
   2  -9  -3   43.17    1.41
   2  -9  -3   38.49    1.16
   2  -9  -3   46.82    1.48
  -2   9   3   40.70    1.31
  -2   9   3   43.96    1.49
  -2   9   3   44.83    1.50
   2  -9  -3   43.42    1.41
  -2   9   2   42.01    1.38
  -2   9   2   42.57    1.49
   2  -9  -2   43.62    1.43
   2  -9  -2   45.29    1.45
   2  -9  -2   43.36    1.42
  -2   9   2   38.83    1.29
  -2   9   1    1.21    0.37
   2  -9  -1    1.22    0.35
   2  -9  -1    1.47    0.37
  -2   9   1    1.32    0.34
   2  -9  -1    1.39    0.35
  -2   8   9   13.08    0.77
   2  -8  -8   44.68    1.56
   2  -8  -8   40.40    1.29
   2  -8  -8   44.30    1.54
  -2   8   8   38.70    1.32
  -2   8   8   46.65    1.72
  -2   8   8   49.04    1.73
   2  -8  -7    1.68    0.48
  -2   8   7    2.44    0.49
   2  -8  -7    2.18    0.44
   2  -8  -7    2.16    0.53
  -2   8   7    2.33    0.57
  -2   8   7    2.02    0.52
  -2   8   6   35.36    1.53
   2  -8  -6   33.53    1.41
   2  -8  -6   36.32    1.74
  -2   8   6   34.88    1.83
   2  -8  -6   36.16    1.68
   2  -8  -6   33.26    1.47
  -2   8   6   38.03    1.89
   2  -8  -6   34.49    1.41
   2  -8  -5    8.10    0.84
   2  -8  -5    8.34    0.83
  -2   8   5    9.46    1.02
  -2   8   5   10.15    0.94
   2  -8  -5    8.26    0.91
  -2   8   5    8.47    0.85
   2  -8  -5    8.38    0.88
   2  -8  -5    8.43    0.89
  -2   8   5    9.54    1.05
   2  -8  -4    0.24    0.35
  -2   8   4    0.76    0.44
   2  -8  -4    0.86    0.49
   2  -8  -4    0.93    0.44
  -2   8   4    0.74    0.41
  -2   8   4    1.91    0.56
   2  -8  -4    0.57    0.39
   2  -8  -4    0.66    0.43
  -2   8   4    1.19    0.61
   2  -8  -3   40.17    1.95
   2  -8  -3   36.98    1.65
  -2   8   3   38.05    1.94
   2  -8  -3   40.30    1.93
  -2   8   3   39.60    2.03
   2  -8  -3   40.23    1.96
   2  -8  -3   36.42    1.79
  -2   8   3   41.64    2.02
  -2   8   3   38.33    2.04
   2  -8  -2  288.59    5.18
   2  -8  -2  287.90    5.10
   2  -8  -2  268.55    4.53
  -2   8   2  284.56    5.27
   2  -8  -2  287.29    5.16
  -2   8   2  280.79    5.38
  -2   8   2  279.72    5.34
  -2   8   2  278.67    4.94
   2  -8  -1    3.44    0.69
   2  -8  -1    4.31    0.61
   2  -8  -1    3.64    0.69
   2  -8  -1    4.00    0.57
  -2   8   1    5.55    0.86
   2  -8  -1    5.20    0.62
  -2   8   1    3.91    0.77
  -2   8   1    4.65    0.68
   2  -8  -1    4.16    0.73
   2  -8   0   15.64    1.21
   2  -8   0   15.11    1.14
   2  -8   0   15.28    1.07
  -2   8   0   15.37    1.28
  -2   8   0   16.08    1.19
  -2   8   0   14.75    1.23
   2  -8   0   15.95    1.07
   2  -8   0   15.90    1.22
   2  -8   1   67.54    2.21
   2  -8   1   66.53    2.09
   2  -8   1   65.64    2.09
   2  -8   1   70.16    2.28
  -2   8  -1   65.94    2.39
   2  -8   1   67.87    2.07
  -2   8  -1   67.50    2.08
  -2   8  -1   66.03    2.39
   2  -8   2    2.64    0.51
   2  -8   2    2.33    0.46
   2  -8   2    2.45    0.46
  -2   8  -2    2.10    0.52
   2  -8   2    2.73    0.53
   2  -8   2    2.30    0.43
  -2   8  -2    2.18    0.54
   2  -8   3  140.89    2.44
  -2   8  -3  141.57    2.67
   2  -8   3  142.40    2.44
   2  -8   3  131.78    2.23
  -2   8  -3  131.61    2.35
  -2   7  10   10.98    0.77
   2  -7 -10   11.24    0.81
  -2   7  10   11.18    0.84
   2  -7 -10    8.74    0.66
   2  -7 -10   10.51    0.67
  -2   7  10   10.69    0.69
  -2   7  10   10.00    0.71
   2  -7  -9   53.32    1.94
   2  -7  -9   55.59    1.91
   2  -7  -9   57.82    1.96
  -2   7   9   58.56    2.13
  -2   7   9   58.35    2.15
  -2   7   9   59.47    2.09
   2  -7  -9   54.34    1.78
  -2   7   9   57.37    1.92
  -2   7   8    1.09    0.56
   2  -7  -8    0.13    0.38
   2  -7  -8   -0.07    0.41
   2  -7  -8    0.70    0.46
   2  -7  -8    0.56    0.38
  -2   7   8    0.28    0.46
  -2   7   8   -0.07    0.43
  -2   7   8   -0.05    0.42
  -2   7   7    9.45    1.06
   2  -7  -7    8.28    1.01
   2  -7  -7    9.60    0.99
   2  -7  -7    8.89    1.04
  -2   7   7    9.95    1.18
  -2   7   7    9.74    1.14
  -2   7   7    8.41    0.92
  -2   7   6  222.81    5.05
   2  -7  -6  221.74    4.44
   2  -7  -6  230.70    4.57
   2  -7  -6  226.81    4.64
  -2   7   6  237.87    5.51
   2  -7  -6  221.72    4.70
   2  -7  -6  230.03    4.94
   2  -7  -6  238.54    5.15
  -2   7   6  239.09    5.50
  -2   7   5   12.67    1.28
   2  -7  -5   12.50    1.20
   2  -7  -5   13.59    1.28
  -2   7   5   12.92    1.42
   2  -7  -5   13.67    1.16
   2  -7  -5   13.80    1.22
   2  -7  -5   13.90    1.37
   2  -7  -5   13.78    1.29
  -2   7   5   12.56    1.22
  -2   7   5   12.09    1.35
  -2   7   5   13.89    1.28
  -2   7   4  255.27    5.49
   2  -7  -4  252.54    5.39
   2  -7  -4  250.46    5.25
   2  -7  -4  271.89    5.51
   2  -7  -4  262.26    5.55
  -2   7   4  259.84    5.55
  -2   7   4  258.20    6.01
  -2   7   4  262.08    5.97
   2  -7  -4  270.23    5.63
  -2   7   4  258.71    5.68
  -2   7   3  150.25    4.15
   2  -7  -3  150.84    3.96
   2  -7  -3  156.90    4.27
   2  -7  -3  157.49    4.24
  -2   7   3  163.02    4.64
  -2   7   3  153.56    4.43
   2  -7  -3  157.22    4.38
   2  -7  -3  152.81    4.31
  -2   7   3  155.04    4.70
  -2   7   3  156.18    4.57
   2  -7  -2   59.60    2.73
   2  -7  -2   60.97    2.70
   2  -7  -2   60.49    2.50
   2  -7  -2   62.59    2.65
  -2   7   2   59.48    2.80
  -2   7   2   59.85    2.82
  -2   7   2   59.55    2.88
   2  -7  -2   57.96    2.38
  -2   7   2   61.83    2.96
   2  -7  -2   62.51    2.80
   2  -7  -1  399.89    6.97
   2  -7  -1  418.41    6.69
   2  -7  -1  390.63    6.29
  -2   7   1  405.45    7.49
  -2   7   1  413.71    7.43
   2  -7  -1  404.82    6.39
  -2   7   1  408.34    7.04
   2  -7  -1  387.31    6.86
  -2   7   1  397.36    7.32
   2  -7  -1  408.60    6.90
   2  -7   0  161.63    4.35
   2  -7   0  163.63    4.26
  -2   7   0  161.54    4.64
   2  -7   0  163.34    4.12
   2  -7   0  157.92    4.17
  -2   7   0  165.57    4.76
  -2   7   0  158.80    4.17
   2  -7   0  161.40    4.38
  -2   7   0  154.54    4.47
   2  -7   1   42.12    2.10
   2  -7   1   47.31    2.31
  -2   7  -1   47.66    2.54
   2  -7   1   45.16    2.19
  -2   7  -1   41.87    2.08
   2  -7   1   45.17    2.27
  -2   7  -1   43.98    2.31
  -2   7  -1   45.99    2.49
   2  -7   1   42.29    2.21
   2  -7   2   12.47    1.20
   2  -7   2   10.85    1.02
  -2   7  -2   11.70    1.28
   2  -7   2   14.40    1.27
  -2   7  -2   10.37    1.20
  -2   7  -2   11.06    1.11
   2  -7   2   10.04    1.10
  -2   7  -2   11.90    1.18
   2  -7   2   12.26    1.17
  -2   7  -2    9.38    0.95
   2  -7   3   87.99    2.63
   2  -7   3   92.94    2.48
  -2   7  -3   95.23    3.18
   2  -7   3   94.53    2.92
  -2   7  -3   94.54    2.93
   2  -7   3   92.54    2.94
  -2   7  -3   86.84    2.98
   2  -7   3   88.97    2.74
  -2   7  -3   92.25    2.70
  -2   7  -3   88.92    2.64
   2  -7   4  188.12    3.77
  -2   7  -4  190.42    4.01
   2  -7   4  197.55    3.80
  -2   7  -4  186.94    3.44
  -2   7  -4  182.71    3.70
  -2   7  -4  183.16    3.73
   2  -7   4  187.03    3.42
   2  -7   4  179.21    3.07
   2  -7   5  122.75    2.60
  -2   7  -5  120.57    2.66
   2  -7   5  123.04    2.55
  -2   7  -5  118.77    2.57
  -2   6  11    1.39    0.46
   2  -6 -11    1.68    0.45
   2  -6 -11    1.78    0.44
  -2   6  11    2.48    0.53
  -2   6  10   22.39    1.46
   2  -6 -10   24.32    1.40
   2  -6 -10   23.57    1.42
   2  -6 -10   22.09    1.16
  -2   6  10   23.97    1.36
   2  -6 -10   23.86    1.24
  -2   6  10   24.15    1.31
  -2   6  10   24.16    1.46
  -2   6   9    8.15    1.06
   2  -6  -9    5.95    0.82
   2  -6  -9    7.15    0.91
   2  -6  -9    7.70    0.98
   2  -6  -9    6.45    0.84
  -2   6   9    6.13    0.89
  -2   6   9    7.75    0.96
  -2   6   9    8.28    1.03
  -2   6   8  114.83    3.82
   2  -6  -8  110.50    3.46
   2  -6  -8  114.71    3.50
  -2   6   8  112.19    3.72
   2  -6  -8  106.02    3.32
  -2   6   8  114.94    3.71
   2  -6  -8  109.89    3.52
  -2   6   8  109.02    3.55
  -2   6   7   59.75    2.86
   2  -6  -7   55.93    2.59
   2  -6  -7   57.01    2.59
  -2   6   7   54.59    2.74
   2  -6  -7   57.27    2.47
   2  -6  -7   54.20    2.40
  -2   6   7   54.79    2.75
   2  -6  -7   57.62    2.67
  -2   6   7   57.25    2.66
  -2   6   6  670.11    9.56
   2  -6  -6  655.20    8.38
   2  -6  -6  634.07    8.61
   2  -6  -6  658.51    9.06
   2  -6  -6  625.11    8.74
   2  -6  -6  665.82    8.71
   2  -6  -6  647.21    8.15
  -2   6   6  672.01    9.82
  -2   6   6  670.30    9.69
   2  -6  -6  668.27    8.21
  -2   6   6  633.13    8.78
  -2   6   5   44.51    2.50
   2  -6  -5   43.40    2.26
   2  -6  -5   42.05    2.31
   2  -6  -5   45.17    2.26
   2  -6  -5   43.38    2.21
   2  -6  -5   44.97    2.41
  -2   6   5   43.96    2.54
  -2   6   5   39.68    2.21
   2  -6  -5   44.73    2.36
  -2   6   5   44.48    2.58
  -2   6   5   44.61    2.32
  -2   6   4   -0.06    0.54
   2  -6  -4    0.70    0.54
   2  -6  -4    1.37    0.59
   2  -6  -4    0.70    0.49
   2  -6  -4    0.21    0.45
   2  -6  -4    0.64    0.47
  -2   6   4    0.33    0.53
  -2   6   4    0.08    0.51
  -2   6   4    0.41    0.44
   2  -6  -4    0.11    0.54
  -2   6   4   -0.11    0.41
   2  -6  -3  511.45    7.64
   2  -6  -3  523.88    7.95
   2  -6  -3  526.95    8.07
  -2   6   3  507.38    8.16
   2  -6  -3  523.73    8.09
  -2   6   3  519.63    8.72
   2  -6  -3  517.47    7.87
  -2   6   3  529.99    8.43
  -2   6   3  524.38    8.68
   2  -6  -2   58.62    2.75
   2  -6  -2   56.22    2.47
   2  -6  -2   59.31    2.70
   2  -6  -2   58.10    2.58
   2  -6  -2   60.18    2.65
  -2   6   2   59.84    2.87
  -2   6   2   56.52    2.84
  -2   6   2   63.07    3.00
   2  -6  -2   58.88    2.75
  -2   6   2   58.86    2.96
   2  -6  -1  416.67    7.21
  -2   6   1  397.75    7.40
   2  -6  -1  420.56    7.13
   2  -6  -1  413.25    6.99
  -2   6   1  418.03    7.63
  -2   6   1  397.76    7.58
   2  -6  -1  415.37    6.79
   2  -6  -1  402.75    6.68
  -2   6   1  405.17    7.60
   2  -6  -1  376.86    7.08
   2  -6  -1  402.33    7.14
  -2   6   0   28.79    2.00
   2  -6   0   30.46    2.04
   2  -6   0   29.00    1.97
   2  -6   0   29.02    1.91
   2  -6   0   30.80    1.95
  -2   6   0   28.46    2.07
   2  -6   0   28.42    1.72
   2  -6   0   27.50    1.82
  -2   6   0   29.01    2.11
   2  -6   0   27.66    1.89
  -2   6   0   27.74    2.07
   2  -6   1  236.90    5.25
   2  -6   1  237.41    5.46
   2  -6   1  230.41    5.38
  -2   6  -1  232.96    5.82
  -2   6  -1  237.70    5.92
  -2   6  -1  226.61    5.72
  -2   6  -1  232.35    5.37
   2  -6   1  236.51    5.36
   2  -6   1  233.91    5.37
  -2   6  -1  232.93    5.39
   2  -6   1  232.78    5.52
   2  -6   2 2862.86   18.36
   2  -6   2 2961.66   17.86
   2  -6   2 2919.50   19.15
   2  -6   2 2812.94   17.65
  -2   6  -2 2908.16   19.32
  -2   6  -2 2883.42   20.38
   2  -6   2 2863.61   18.67
  -2   6  -2 2880.70   18.34
   2  -6   2 2878.13   18.61
  -2   6  -2 2819.87   20.28
   2  -6   2 2871.18   19.02
  -2   6  -2 2811.45   19.46
   2  -6   3  558.05    7.77
   2  -6   3  554.27    7.25
  -2   6  -3  545.62    8.26
  -2   6  -3  544.99    8.75
   2  -6   3  548.74    8.12
  -2   6  -3  564.89    8.56
   2  -6   3  549.14    7.82
  -2   6  -3  539.23    8.64
  -2   6  -3  558.24    8.13
   2  -6   3  549.41    7.84
   2  -6   3  558.13    8.35
   2  -6   3  553.14    8.11
   2  -6   3  530.07    7.31
   2  -6   4   16.74    1.36
   2  -6   4   15.92    1.24
   2  -6   4   16.36    1.47
   2  -6   4   15.43    1.37
  -2   6  -4   17.95    1.60
  -2   6  -4   15.95    1.36
  -2   6  -4   16.33    1.49
   2  -6   4   15.58    1.27
  -2   6  -4   15.99    1.46
   2  -6   4   18.69    1.45
  -2   6  -4   14.69    1.29
   2  -6   4   13.82    1.18
   2  -6   5   44.94    2.13
   2  -6   5   42.43    1.83
  -2   6  -5   43.03    2.20
   2  -6   5   43.48    2.04
   2  -6   5   42.65    1.97
  -2   6  -5   42.72    2.06
   2  -6   5   42.20    1.88
  -2   6  -5   43.59    2.20
   2  -6   5   40.71    1.86
  -2   6  -5   43.67    2.07
   2  -6   6  215.52    4.00
  -2   6  -6  217.23    4.20
   2  -6   6  216.10    3.86
  -2   6  -6  206.81    3.54
  -2   6  -6  222.38    4.33
   2  -6   6  214.57    3.84
  -2   6  -6  220.26    4.07
   2  -6   6  212.93    3.75
  -2   6  -7  103.84    2.24
   2  -6   7   87.21    2.03
  -2   6  -7   92.59    2.06
  -2   6  -7  100.27    2.36
   2  -6   7   90.75    1.87
   2  -6   7   92.55    2.06
   2  -6   7   92.02    1.97
   2  -6   7   89.35    1.89
   2  -5 -12  182.53    2.89
   2  -5 -12  181.08    2.84
  -2   5  12  185.65    3.10
  -2   5  12  186.57    3.08
   2  -5 -11  112.32    2.95
   2  -5 -11  113.80    2.95
  -2   5  11  115.19    3.13
   2  -5 -11  112.54    2.68
  -2   5  11  108.56    2.60
  -2   5  11  115.50    3.12
  -2   5  10  270.86    5.52
   2  -5 -10  253.97    4.38
  -2   5  10  267.17    4.84
   2  -5 -10  242.55    4.27
   2  -5 -10  279.18    5.32
   2  -5 -10  269.37    5.16
  -2   5  10  262.84    4.81
   2  -5 -10  255.36    4.66
  -2   5  10  268.41    4.76
  -2   5  10  263.94    5.35
  -2   5   9   15.11    1.51
  -2   5   9   15.76    1.38
   2  -5  -9   14.38    1.26
  -2   5   9   15.57    1.37
   2  -5  -9   17.93    1.53
   2  -5  -9   15.39    1.29
   2  -5  -9   16.04    1.32
   2  -5  -9   15.27    1.41
  -2   5   9   17.07    1.38
  -2   5   9   16.25    1.54
  -2   5   8  379.49    7.34
   2  -5  -8  385.07    6.66
   2  -5  -8  384.54    6.95
   2  -5  -8  390.71    6.76
  -2   5   8  387.84    7.13
   2  -5  -8  363.68    6.65
  -2   5   8  390.51    6.68
  -2   5   8  394.28    7.26
  -2   5   7  454.04    8.03
   2  -5  -7  420.08    6.91
  -2   5   7  443.58    7.78
   2  -5  -7  427.67    7.19
   2  -5  -7  460.70    7.52
   2  -5  -7  457.21    7.34
  -2   5   7  446.64    7.75
   2  -5  -7  441.65    7.42
  -2   5   7  439.50    7.16
  -2   5   7  468.16    7.90
  -2   5   6  868.70   10.98
   2  -5  -6  858.03   10.15
   2  -5  -6  861.71   10.12
   2  -5  -6  868.16   10.33
  -2   5   6  856.26   10.89
   2  -5  -6  836.68    9.82
  -2   5   6  803.73   16.33
   2  -5  -6  816.50   18.86
  -2   5   6  796.97   16.53
  -2   5   6  829.02   17.98
  -2   5   6  848.34   10.69
   2  -5  -6  836.68    9.79
  -2   5   6  841.73   10.42
  -2   5   5  384.18    7.23
   2  -5  -5  358.68    6.35
   2  -5  -5  367.86    6.24
   2  -5  -5  380.56    6.62
   2  -5  -5  366.90   11.46
   2  -5  -5  369.98    6.43
   2  -5  -5  384.93    6.76
  -2   5   5  372.75    7.07
   2  -5  -5  377.38   12.63
   2  -5  -5  365.91   12.28
  -2   5   5  374.63   11.55
  -2   5   5  363.35   11.40
   2  -5  -5  382.41    6.64
  -2   5   5  379.86   11.69
   2  -5  -5  358.85   11.33
  -2   5   5  388.97   11.69
  -2   5   5  380.17   11.71
   2  -5  -5  380.09   12.16
  -2   5   5  369.66   10.75
   2  -5  -5  398.30   12.12
  -2   5   5  392.11    7.28
   2  -5  -5  364.66   11.45
   2  -5  -5  375.35    6.19
   2  -5  -5  379.18   11.75
  -2   5   5  378.69   11.76
  -2   5   5  342.83   10.81
  -2   5   5  375.35   11.78
  -2   5   5  368.13    6.74
   2  -5  -4  111.58    3.55
   2  -5  -4  112.30    3.53
   2  -5  -4  111.99    3.46
   2  -5  -4  120.29    6.38
   2  -5  -4  116.55    6.42
   2  -5  -4  113.60    3.61
  -2   5   4  104.82    6.06
   2  -5  -4  115.87    6.44
  -2   5   4  112.85    6.17
  -2   5   4  108.15    6.10
   2  -5  -4  114.79    3.61
  -2   5   4  109.40    6.14
  -2   5   4  111.50    3.86
  -2   5   4  109.77    5.70
   2  -5  -4  113.10    6.69
   2  -5  -4  110.02    6.66
   2  -5  -4  114.56    6.29
  -2   5   4  121.63    6.44
   2  -5  -4  117.50    6.63
  -2   5   4  108.36    6.08
  -2   5   4  112.90    3.89
  -2   5   4  123.01    6.56
  -2   5   4  105.76    5.95
   2  -5  -4  113.40    6.22
   2  -5  -3  330.89   10.96
  -2   5   3  344.20   10.59
  -2   5   3  345.53   10.64
   2  -5  -3  331.69   10.53
  -2   5   3  344.46   10.64
   2  -5  -3  354.71   11.44
  -2   5   3  323.86    9.61
   2  -5  -3  322.72   11.13
   2  -5  -3  333.22   10.64
  -2   5   3  341.09   10.68
   2  -5  -3  327.23   10.33
  -2   5   3  323.44   10.13
  -2   5   3  338.47   10.74
   2  -5  -3  321.62   11.12
  -2   5   3  312.23   10.18
   2  -5  -3  347.05   10.60
  -2   5   3  332.51   10.47
  -2   5   2  507.38   11.80
  -2   5   2  516.81   12.86
  -2   5   2  528.82   13.08
   2  -5  -2  507.54   13.80
  -2   5   2  534.32   13.15
   2  -5  -2  525.92   12.89
   2  -5  -2  524.77   13.67
   2  -5  -2  527.72   13.25
   2  -5  -2  532.81   13.18
  -2   5   2  539.08   13.33
   2  -5  -2  522.62   12.90
   2  -5  -2  535.42   14.14
  -2   5   2  548.25   13.54
  -2   5   2  497.66   12.81
  -2   5   2  518.68   12.85
  -2   5   2  494.90   11.96
  -2   5   1    0.33    0.58
  -2   5   1    1.29    0.83
  -2   5   1   -0.25    0.29
   2  -5  -1    1.61    1.08
  -2   5   1    0.16    0.71
   2  -5  -1    1.56    0.87
   2  -5  -1    1.01    0.79
  -2   5   1   -0.91    0.86
   2  -5  -1    0.56    0.68
   2  -5  -1   -0.98    0.63
  -2   5   1    0.29    0.52
   2  -5  -1    1.57    0.82
   2  -5  -1    1.19    0.84
  -2   5   1    1.48    0.87
  -2   5   1    1.05    0.73
   2  -5   0  610.22    8.23
   2  -5   0  608.39    8.27
   2  -5   0  589.86    8.05
   2  -5   0  654.50   14.44
  -2   5   0  639.84   14.46
  -2   5   0  606.26    8.79
   2  -5   0  593.95    7.98
  -2   5   0  638.66   14.42
  -2   5   0  662.30   14.65
  -2   5   0  623.76   14.21
   2  -5   0  606.21   15.63
   2  -5   0  635.16   14.72
   2  -5   0  631.91   15.22
   2  -5   0  621.53   14.37
  -2   5   0  621.23    9.00
  -2   5   0  657.99   15.08
  -2   5   0  584.47   14.13
   2  -5   0  642.54   14.33
  -2   5   0  637.25   14.46
   2  -5   0  614.00    8.29
   2  -5   0  617.27   14.22
  -2   5   0  617.06   12.99
   2  -5   0  586.27    8.40
  -2   5  -1   94.62    3.35
   2  -5   1   89.71    5.15
   2  -5   1   92.52    3.34
   2  -5   1   89.33    6.12
  -2   5  -1   92.35    3.56
  -2   5  -1   92.82    5.64
   2  -5   1   96.87    3.33
  -2   5  -1  104.51    5.92
   2  -5   1   85.50    5.75
  -2   5  -1   94.35    5.66
   2  -5   1   90.23    5.51
  -2   5  -1   96.85    5.55
   2  -5   1   88.72    5.55
   2  -5   1   97.44    5.86
  -2   5  -1   93.99    5.62
   2  -5   1   98.03    5.97
   2  -5   1   95.52    3.23
  -2   5  -1   94.38    3.59
  -2   5  -1   94.68    5.86
   2  -5   1   99.66    5.81
   2  -5   1   96.02    3.31
   2  -5   1   97.38    3.33
  -2   5  -1   91.56    5.78
  -2   5  -1   88.15    5.08
   2  -5   1   93.09    3.39
   2  -5   1   91.61    3.23
  -2   5  -1  100.61    5.82
   2  -5   2    1.90    0.89
  -2   5  -2    0.06    0.63
  -2   5  -2    0.58    0.80
   2  -5   2   -0.06    0.40
  -2   5  -2   -1.81    0.96
   2  -5   2    0.59    0.51
   2  -5   2    1.03    0.42
   2  -5   2    0.72    0.43
   2  -5   2    0.22    0.31
   2  -5   2    6.00    1.59
  -2   5  -2    0.27    0.47
  -2   5  -2    0.15    0.44
  -2   5  -2    2.46    1.14
   2  -5   2   -0.06    0.44
  -2   5  -2   -1.64    0.92
  -2   5  -2    0.11    0.42
   2  -5   2   -0.08    0.62
  -2   5  -2    0.48    0.57
   2  -5   2   -0.15    0.36
  -2   5  -2    1.13    0.52
   2  -5   2   -2.47    0.97
  -2   5  -2    0.07    0.35
  -2   5  -2    0.59    0.70
   2  -5   2    0.39    0.87
   2  -5   2   -0.08    0.37
   2  -5   2    0.47    0.38
   2  -5   2    0.11    0.43
   2  -5   3  105.64    3.49
   2  -5   3  104.50    3.29
  -2   5  -3  107.43    3.97
  -2   5  -3  111.48    4.05
   2  -5   3  105.38    3.51
   2  -5   3  104.90    3.70
   2  -5   3  108.18    3.55
  -2   5  -3  107.83    3.87
   2  -5   3  103.64    3.63
   2  -5   3  110.39    3.73
   2  -5   3  107.18    3.63
  -2   5  -3  107.56    3.71
   2  -5   4  866.19    9.51
   2  -5   4  827.66    9.62
   2  -5   4  832.64   10.38
   2  -5   4  865.51   10.34
  -2   5  -4  865.91   11.32
  -2   5  -4  854.44   10.56
  -2   5  -4  869.47   11.13
   2  -5   4  872.95   10.43
  -2   5  -4  852.30   11.00
   2  -5   4  880.00   10.34
   2  -5   4  847.98   10.10
   2  -5   5  584.48    8.43
  -2   5  -5  580.46    9.06
   2  -5   5  572.19    8.22
   2  -5   5  570.72    8.35
   2  -5   5  569.18    7.55
  -2   5  -5  567.29    8.61
  -2   5  -5  574.93    8.61
  -2   5  -5  586.87    9.05
   2  -5   5  572.35    8.04
   2  -5   5  586.79    8.32
   2  -5   6    0.33    0.47
  -2   5  -6    0.90    0.60
  -2   5  -6    1.02    0.46
  -2   5  -6    0.98    0.63
   2  -5   6    1.95    0.54
   2  -5   6    0.87    0.50
  -2   5  -6    0.96    0.47
   2  -5   6    0.44    0.45
   2  -5   6    0.43    0.35
   2  -5   7   29.65    1.66
   2  -5   7   26.87    1.53
  -2   5  -7   27.98    1.70
  -2   5  -7   26.46    1.64
   2  -5   7   27.89    1.48
   2  -5   7   27.35    1.62
  -2   5  -7   26.67    1.70
   2  -5   8   33.62    1.34
   2  -5   8   35.82    1.54
  -2   5  -8   35.71    1.57
  -2   5  -8   36.07    1.63
  -2   5  -8   34.09    1.44
   2  -5   8   30.23    1.11
   2  -5   8   34.10    1.50
   2  -4 -12   69.66    2.01
   2  -4 -12   69.53    2.05
   2  -4 -12   71.02    2.06
  -2   4  12   72.46    2.06
  -2   4  12   72.54    2.23
  -2   4  12   70.56    2.15
  -2   4  11  110.86    3.33
   2  -4 -11  107.94    3.13
   2  -4 -11  108.97    2.82
   2  -4 -11  112.38    2.79
   2  -4 -11  108.63    3.09
  -2   4  11  110.62    2.81
   2  -4 -11  109.45    3.17
  -2   4  11  109.54    3.14
  -2   4  11  109.96    3.33
  -2   4  10  271.91    5.80
  -2   4  10  267.07    5.46
   2  -4 -10  257.45    4.89
   2  -4 -10  265.23    4.92
  -2   4  10  257.49    4.97
   2  -4 -10  273.44    5.58
   2  -4 -10  266.56    5.37
   2  -4 -10  263.69    5.48
  -2   4  10  262.09    5.72
  -2   4   9   98.66    3.73
   2  -4  -9   96.01    3.15
   2  -4  -9   96.50    3.53
  -2   4   9  100.48    3.54
  -2   4   9  102.72    3.42
  -2   4   9  101.16    3.32
   2  -4  -9   97.71    3.53
   2  -4  -9   99.25    3.42
  -2   4   9   95.38    3.63
  -2   4   9   99.83    3.35
   2  -4  -9   97.35    3.20
  -2   4   8   99.15    3.77
   2  -4  -8   97.53    3.34
   2  -4  -8   95.63    3.53
   2  -4  -8   98.68    3.40
   2  -4  -8  103.10    3.63
  -2   4   8  105.33    3.62
   2  -4  -8   99.82    3.44
  -2   4   8  102.00    3.61
  -2   4   8  100.70    3.53
  -2   4   8   94.05    3.61
  -2   4   7 1065.04   19.47
  -2   4   7 1044.73   11.38
  -2   4   7  955.47   17.74
   2  -4  -7 1042.12   10.91
   2  -4  -7 1050.18   11.27
   2  -4  -7 1028.13   11.33
  -2   4   7 1055.23   19.55
   2  -4  -7 1063.53   11.14
  -2   4   7 1024.52   19.26
   2  -4  -7 1079.88   20.48
   2  -4  -7  993.59   20.60
   2  -4  -7 1074.58   19.96
   2  -4  -7 1034.81   19.65
   2  -4  -7 1018.56   21.45
   2  -4  -7  969.86   19.80
  -2   4   7 1049.24   19.44
  -2   4   7 1048.79   11.97
   2  -4  -7 1058.43   19.93
  -2   4   7 1092.03   19.94
  -2   4   7  948.05   17.89
  -2   4   7 1065.58   11.86
   2  -4  -7 1047.63   10.72
  -2   4   7 1070.01   11.49
   2  -4  -7 1046.30   20.64
  -2   4   7 1025.77   19.62
  -2   4   7 1008.11   19.15
  -2   4   7 1038.96   11.48
  -2   4   6  125.23    4.05
   2  -4  -6  120.94    3.66
   2  -4  -6  117.91    3.60
  -2   4   6  126.90    6.50
  -2   4   6  112.98    6.00
   2  -4  -6  123.56    3.76
  -2   4   6  117.98    3.80
  -2   4   6  129.21    6.60
   2  -4  -6  127.98    7.12
  -2   4   6  120.22    6.38
   2  -4  -6  116.11    7.03
  -2   4   6  125.16    6.48
   2  -4  -6  121.85    6.50
   2  -4  -6  117.69    3.68
  -2   4   6  116.70    5.94
   2  -4  -6  119.91    6.43
  -2   4   6  125.05    6.51
  -2   4   6  133.56    6.74
   2  -4  -6  128.29    6.98
   2  -4  -6  125.54    6.59
   2  -4  -6  110.40    6.52
   2  -4  -6  122.74    6.68
  -2   4   6  114.33    3.79
  -2   4   6  117.27    6.44
  -2   4   6  120.74    3.85
   2  -4  -5  237.65    8.20
   2  -4  -5  230.86    9.15
  -2   4   5  236.91    8.46
  -2   4   5  243.77    8.56
   2  -4  -5  236.78    8.55
   2  -4  -5  238.50    8.86
  -2   4   5  226.14    8.60
  -2   4   5  235.07    8.02
   2  -4  -5  237.63    9.03
  -2   4   5  244.58    8.72
   2  -4  -5  244.39    8.64
   2  -4  -5  242.73    9.28
  -2   4   5  217.71    7.96
  -2   4   5  240.25    8.47
   2  -4  -5  242.70    8.72
  -2   4   5  240.06    8.53
  -2   4   4   53.37    4.01
  -2   4   4   57.25    4.02
   2  -4  -4   63.43    4.40
   2  -4  -4   56.13    3.97
   2  -4  -4   54.50    3.93
  -2   4   4   52.03    3.85
   2  -4  -4   56.59    4.31
   2  -4  -4   55.30    3.99
  -2   4   4   59.33    4.06
   2  -4  -4   60.28    4.13
  -2   4   4   53.92    3.64
  -2   4   4   61.55    4.23
   2  -4  -4   48.88    4.07
  -2   4   4   56.57    3.96
  -2   4   4   61.61    4.15
  -2   4   4   57.99    4.07
   2  -4  -4   58.65    4.14
  -2   4   3  810.72   14.57
  -2   4   3  784.55   14.23
  -2   4   3  784.69   14.28
   2  -4  -3  735.43   14.37
   2  -4  -3  778.69   14.45
   2  -4  -3  741.26   13.78
  -2   4   3  775.73   14.41
   2  -4  -3  773.38   14.84
  -2   4   3  755.41   12.84
   2  -4  -3  792.28   14.43
  -2   4   3  788.75   14.33
   2  -4  -3  741.05   14.91
   2  -4  -3  789.65   14.22
   2  -4  -3  763.83   15.40
  -2   4   3  720.70   13.85
  -2   4   3  749.31   14.11
  -2   4   3  767.67   14.03
  -2   4   2 2789.62   26.64
   2  -4  -2 2689.47   27.16
   2  -4  -2 2830.77   26.60
   2  -4  -2 2751.97   25.83
  -2   4   2 2756.53   26.05
  -2   4   2 2701.44   25.88
   2  -4  -2 2726.82   26.58
  -2   4   2 2597.79   23.33
  -2   4   2 2598.02   21.84
   2  -4  -2 2665.11   25.52
   2  -4  -2 2650.47   27.53
  -2   4   2 2688.65   26.32
   2  -4  -2 2737.31   28.32
  -2   4   2 2664.10   26.46
   2  -4  -2 2540.86   26.79
  -2   4   2 2723.16   25.93
  -2   4   2 2701.91   25.87
  -2   4   2 2697.76   25.28
   2  -4  -1  517.31    9.25
   2  -4  -1  529.08   12.53
  -2   4   1  551.23   11.70
  -2   4   1  542.26   11.56
  -2   4   1  527.94   11.43
   2  -4  -1  523.27   11.51
   2  -4  -1  532.38   11.34
  -2   4   1  538.16   10.49
   2  -4  -1  536.07   11.82
  -2   4   1  509.31   10.20
  -2   4   1  549.66   11.86
  -2   4   1  555.15   11.64
   2  -4  -1  526.20   11.37
   2  -4  -1  527.67   12.06
  -2   4   1  531.62   11.46
  -2   4   1  520.11   11.77
   2  -4  -1  534.44   11.36
  -2   4   1  539.54   10.69
   2  -4   0   96.46    5.54
  -2   4   0   95.21    5.11
   2  -4   0   97.40    5.27
  -2   4   0  105.10    5.18
  -2   4   0  102.36    5.08
  -2   4   0  100.55    5.05
  -2   4   0   93.99    4.44
  -2   4   0  103.48    5.10
  -2   4   0   97.90    4.97
   2  -4   0  102.59    5.05
   2  -4   0  102.27    5.24
   2  -4   0   99.99    5.08
  -2   4   0   93.36    4.69
  -2   4   0  100.50    5.18
   2  -4   0  104.05    5.08
   2  -4   0   96.39    4.43
   2  -4   0  101.18    5.04
  -2   4   0   92.42    4.22
   2  -4   1  866.79   14.33
   2  -4   1  916.99   15.44
  -2   4  -1  917.18   15.59
   2  -4   1  894.75   17.35
  -2   4  -1  924.11   15.49
  -2   4  -1  929.07   15.84
  -2   4  -1  927.93   16.27
  -2   4  -1  917.29   15.46
   2  -4   1  913.02   15.36
  -2   4  -1  845.62   14.88
   2  -4   1  892.35   16.24
   2  -4   1  967.67   16.17
   2  -4   1  923.67   16.09
   2  -4   1  915.63   15.52
  -2   4  -1  880.46   15.87
  -2   4  -1  912.03   14.18
  -2   4  -1  906.18   15.38
   2  -4   2  921.82   15.86
  -2   4  -2  958.79   17.20
  -2   4  -2  976.44   16.69
  -2   4  -2 1014.28   17.34
  -2   4  -2  986.37   16.64
  -2   4  -2 1000.81   16.80
   2  -4   2  975.64   16.42
   2  -4   2 1004.26   17.05
  -2   4  -2  979.55   15.49
  -2   4  -2  925.90   16.52
  -2   4  -2  955.40   16.36
  -2   4  -2  897.70   16.51
   2  -4   2  941.91   17.42
   2  -4   2  950.84   16.33
   2  -4   2 1025.08   16.90
   2  -4   2  956.06   17.05
   2  -4   3  267.54    9.16
   2  -4   3  293.10    9.89
   2  -4   3  289.16    9.41
  -2   4  -3  297.22    9.82
  -2   4  -3  291.83    9.59
  -2   4  -3  293.67    9.53
   2  -4   3  284.58    9.52
  -2   4  -3  289.79    9.78
   2  -4   3  279.89    9.24
  -2   4  -3  289.11    9.41
   2  -4   3  294.12    9.52
  -2   4  -3  267.85    9.39
  -2   4  -3  283.17    9.33
  -2   4  -3  261.52    8.78
  -2   4  -4   21.14    1.75
   2  -4   4   16.94    2.47
   2  -4   4   23.19    1.71
   2  -4   4   20.75    1.63
  -2   4  -4   22.84    2.87
   2  -4   4   21.88    2.76
  -2   4  -4   21.94    2.86
  -2   4  -4   21.35    2.77
   2  -4   4   21.74    1.64
  -2   4  -4   22.85    2.76
  -2   4  -4   22.08    2.91
  -2   4  -4   21.30    2.79
   2  -4   4   20.34    1.50
  -2   4  -4   20.56    2.81
   2  -4   4   19.97    1.60
   2  -4   4   24.86    2.92
  -2   4  -4   20.42    2.76
   2  -4   4   20.30    2.76
   2  -4   4   19.67    2.67
  -2   4  -4   23.20    1.78
   2  -4   4   17.63    2.54
   2  -4   4   20.59    1.60
   2  -4   4   22.48    2.89
   2  -4   5    5.78    0.91
   2  -4   5    3.43    0.80
   2  -4   5    2.83    0.73
  -2   4  -5    2.76    0.85
  -2   4  -5    3.49    0.80
   2  -4   5    2.84    0.71
   2  -4   5    3.78    0.82
   2  -4   5    2.84    0.54
   2  -4   5    3.71    0.79
   2  -4   6    2.11    0.70
  -2   4  -6    2.06    0.73
   2  -4   6    2.77    0.64
  -2   4  -6    2.38    0.77
   2  -4   6    2.01    0.57
   2  -4   6    2.94    0.69
   2  -4   6    3.07    0.79
  -2   4  -7  205.81    5.19
  -2   4  -7  196.80    5.09
   2  -4   7  197.77    4.40
   2  -4   7  204.58    5.01
  -2   4  -7  201.01    4.64
   2  -4   7  200.46    4.66
  -2   4  -7  203.24    4.54
   2  -4   7  203.06    4.49
   2  -4   7  212.64    5.04
  -2   4  -7  203.89    5.29
  -2   4  -8   28.06    1.79
   2  -4   8   26.08    1.69
   2  -4   8   31.05    1.63
  -2   4  -8   27.60    1.70
   2  -4   8   26.15    1.37
  -2   4  -8   27.60    1.80
   2  -4   8   25.57    1.66
  -2   4  -8   25.64    1.47
  -2   4  -9   13.29    1.08
  -2   4  -9   11.51    0.82
  -2   4  -9   12.10    0.92
   2  -4   9   11.34    0.89
   2  -4   9   12.59    1.02
  -2   4  -9   11.83    1.03
   2  -4   9   12.78    1.01
  -2   4 -10   22.20    0.96
   2  -4  10   21.62    0.93
   2  -4  10   20.58    0.91
   2  -3 -13   15.65    0.80
   2  -3 -12   68.97    2.08
   2  -3 -12   70.22    2.17
  -2   3  12   74.64    2.39
   2  -3 -12   71.87    2.17
  -2   3  12   71.28    2.16
  -2   3  12   74.37    2.34
   2  -3 -12   73.89    2.35
   2  -3 -12   69.65    2.01
  -2   3  12   74.09    2.27
   2  -3 -11    2.04    0.57
   2  -3 -11    1.86    0.58
  -2   3  11    2.18    0.61
   2  -3 -11    3.21    0.64
   2  -3 -11    2.17    0.63
  -2   3  11    2.23    0.67
  -2   3  11    2.19    0.63
   2  -3 -11    2.66    0.69
  -2   3  11    2.03    0.63
  -2   3  10   89.20    3.39
  -2   3  10   88.27    3.39
   2  -3 -10   88.15    3.26
   2  -3 -10   94.53    3.38
   2  -3 -10   88.42    3.19
  -2   3  10   87.56    3.19
   2  -3 -10   88.78    3.10
   2  -3 -10   84.75    3.25
  -2   3  10   87.33    3.35
  -2   3   9  644.81    9.42
   2  -3  -9  645.22    9.11
   2  -3  -9  637.07    8.62
   2  -3  -9  634.32    8.75
   2  -3  -9  634.37    9.03
  -2   3   9  643.70    8.95
   2  -3  -9  626.32    9.01
  -2   3   9  677.11    9.47
  -2   3   9  639.97    9.33
  -2   3   8  212.21    5.37
   2  -3  -8  207.29    4.69
   2  -3  -8  199.51    8.02
   2  -3  -8  189.80    4.59
   2  -3  -8  201.80    4.84
   2  -3  -8  200.20    9.53
  -2   3   8  207.14    5.04
   2  -3  -8  206.55    5.14
   2  -3  -8  210.04    9.14
   2  -3  -8  204.34    8.95
   2  -3  -8  201.88    8.88
   2  -3  -8  211.25    5.17
  -2   3   8  206.45    8.51
  -2   3   8  205.25    8.75
  -2   3   8  212.52    8.91
   2  -3  -8  206.29    9.24
  -2   3   8  193.01    8.03
   2  -3  -8  208.93    5.07
   2  -3  -8  187.98    8.34
  -2   3   8  207.00    8.80
  -2   3   8  202.42    8.70
  -2   3   8  208.46    5.19
  -2   3   8  194.90    8.34
  -2   3   8  194.08    8.50
   2  -3  -8  193.99    8.95
  -2   3   8  210.70    5.30
  -2   3   7   12.14    1.29
   2  -3  -7   12.89    1.26
  -2   3   7   13.00    2.21
   2  -3  -7   11.37    1.20
   2  -3  -7   10.70    1.91
   2  -3  -7   12.81    2.23
  -2   3   7   10.56    1.90
   2  -3  -7   10.64    2.20
  -2   3   7   12.38    2.15
   2  -3  -7   12.29    1.17
   2  -3  -7   13.55    2.32
   2  -3  -7   10.29    1.86
  -2   3   7   14.39    2.33
   2  -3  -7   12.72    2.20
   2  -3  -7   11.83    1.16
   2  -3  -7   10.90    2.04
  -2   3   7   15.83    2.38
  -2   3   7   12.32    2.17
   2  -3  -7   12.64    2.20
   2  -3  -7   13.05    2.26
  -2   3   7   12.23    1.26
  -2   3   7   11.12    1.95
  -2   3   7    9.52    1.83
  -2   3   7   10.98    1.96
  -2   3   7   13.49    1.34
   2  -3  -6  128.80    5.91
  -2   3   6  132.00    6.21
   2  -3  -6  129.42    6.25
  -2   3   6  131.94    6.17
   2  -3  -6  134.83    6.40
  -2   3   6  127.30    6.10
   2  -3  -6  136.24    6.56
   2  -3  -6  135.60    6.40
  -2   3   6  135.30    6.06
  -2   3   6  132.40    6.25
  -2   3   6  131.43    6.15
   2  -3  -6  126.75    6.86
   2  -3  -6  133.25    6.63
  -2   3   6  126.24    6.09
   2  -3  -6  123.27    6.25
  -2   3   6  126.27    5.96
  -2   3   6  132.87    6.33
   2  -3  -6  127.23    6.52
   2  -3  -5  104.79    5.39
  -2   3   5  109.82    5.27
   2  -3  -5   90.95    4.69
   2  -3  -5   89.95    4.38
   2  -3  -5  100.86    5.51
   2  -3  -5   95.68    5.31
  -2   3   5  103.92    5.14
  -2   3   5   95.05    4.96
  -2   3   5   96.56    5.12
  -2   3   5   97.87    4.78
   2  -3  -5   91.02    5.47
  -2   3   5   96.41    5.00
  -2   3   5  103.12    5.20
   2  -3  -5  105.07    5.29
   2  -3  -5   97.39    5.04
   2  -3  -5  103.09    5.46
  -2   3   5   97.00    4.97
  -2   3   5   98.18    5.05
   2  -3  -5   98.45    5.08
   2  -3  -4  167.58    6.42
   2  -3  -4  171.16    6.75
   2  -3  -4  154.94    5.84
   2  -3  -4  163.43    5.85
   2  -3  -4  168.26    6.16
  -2   3   4  166.29    6.11
  -2   3   4  158.09    6.00
  -2   3   4  166.75    6.14
  -2   3   4  159.68    6.00
   2  -3  -4  154.51    6.02
   2  -3  -4  157.24    6.00
  -2   3   4  175.75    6.27
  -2   3   4  161.39    5.67
   2  -3  -4  159.22    6.02
  -2   3   4  164.28    6.10
  -2   3   4  167.50    6.22
   2  -3  -4  156.89    6.37
  -2   3   4  155.30    6.13
   2  -3  -4  158.01    6.39
   2  -3  -3  331.46    8.97
  -2   3   3  326.41    8.11
  -2   3   3  325.38    8.11
  -2   3   3  332.35    8.21
  -2   3   3  322.15    8.07
   2  -3  -3  317.39    8.03
  -2   3   3  324.90    6.78
  -2   3   3  319.82    8.28
   2  -3  -3  327.29    8.25
  -2   3   3  332.99    8.23
   2  -3  -3  324.06    8.10
  -2   3   3  313.28    7.35
   2  -3  -3  315.33    8.63
  -2   3   3  321.83    8.20
   2  -3  -3  329.12    8.93
  -2   3   3  325.52    8.32
   2  -3  -3  327.73    8.53
   2  -3  -3  322.43    8.26
   2  -3  -3  318.87    8.11
  -2   3   2   67.72    3.58
  -2   3   2   68.56    3.58
   2  -3  -2   66.47    3.76
  -2   3   2   66.42    3.52
   2  -3  -2   67.04    3.54
   2  -3  -2   67.54    3.77
  -2   3   2   64.33    3.08
   2  -3  -2   71.82    3.77
  -2   3   2   68.11    3.77
   2  -3  -2   68.50    3.63
  -2   3   2   69.66    3.66
   2  -3  -2   67.41    3.54
  -2   3   2   67.03    3.21
   2  -3  -2   68.63    3.88
  -2   3   2   67.44    3.64
   2  -3  -2   65.46    3.90
  -2   3   2   65.79    3.52
  -2   3   2   67.42    3.60
   2  -3  -1   35.56    2.74
   2  -3  -1   36.62    2.13
  -2   3   1   38.15    2.68
   2  -3  -1   37.30    2.65
  -2   3   1   39.53    2.72
  -2   3   1   37.96    2.66
  -2   3   1   35.59    2.61
  -2   3   1   36.20    2.61
   2  -3  -1   37.50    2.61
  -2   3   1   36.83    2.34
   2  -3  -1   35.70    2.85
  -2   3   1   37.15    2.46
   2  -3  -1   38.81    2.71
   2  -3  -1   37.81    2.90
  -2   3   1   36.47    2.62
   2  -3  -1   38.55    2.66
  -2   3   1   36.07    2.73
  -2   3   1   38.91    2.58
   2  -3  -1   35.13    2.63
   2  -3   0  364.93    8.08
   2  -3   0  332.16    7.12
  -2   3   0  355.62    7.99
  -2   3   0  353.02    7.99
   2  -3   0  351.30    7.91
  -2   3   0  360.49    8.18
  -2   3   0  354.34    7.98
  -2   3   0  367.13    8.47
   2  -3   0  357.95    8.56
   2  -3   0  352.39    8.25
  -2   3   0  334.66    7.67
   2  -3   0  355.54    8.13
  -2   3   0  360.37    8.07
   2  -3   0  360.76    8.11
  -2   3   0  349.31    7.18
  -2   3   0  369.02    7.32
  -2   3   0  342.53    8.34
   2  -3   0  359.06    9.21
   2  -3   1   75.40    3.76
   2  -3   1   80.34    3.92
   2  -3   1   76.52    3.27
  -2   3  -1   78.11    3.94
   2  -3   1   77.71    3.02
  -2   3  -1   80.48    4.04
   2  -3   1   84.71    4.64
   2  -3   1   76.67    3.82
  -2   3  -1   78.42    3.92
  -2   3  -1   74.78    3.93
   2  -3   1   80.67    4.24
   2  -3   1   79.71    4.00
  -2   3  -1   76.67    3.85
  -2   3  -1   80.17    4.16
  -2   3  -1   79.08    3.53
  -2   3  -1   78.52    3.91
  -2   3  -1   82.32    4.15
   2  -3   1   78.67    4.09
   2  -3   1   82.17    3.99
  -2   3  -2    3.72    1.02
   2  -3   2    5.80    1.17
   2  -3   2    5.51    1.24
  -2   3  -2    4.90    1.17
  -2   3  -2    5.59    1.28
  -2   3  -2    4.80    1.10
  -2   3  -2    4.91    1.19
   2  -3   2    6.55    1.34
  -2   3  -2    4.50    1.10
  -2   3  -2    4.57    1.15
   2  -3   2    4.05    1.03
   2  -3   2    5.31    1.19
   2  -3   2    5.16    1.02
  -2   3  -2    4.42    1.28
   2  -3   2    5.03    1.16
   2  -3   2    3.93    0.95
  -2   3  -2    4.70    1.03
   2  -3   3   60.96    3.82
   2  -3   3   63.33    4.03
  -2   3  -3   60.93    3.80
  -2   3  -3   56.57    3.74
   2  -3   3   61.27    3.96
  -2   3  -3   61.19    4.13
  -2   3  -3   51.15    3.49
   2  -3   3   61.21    3.82
  -2   3  -3   54.49    3.63
   2  -3   3   63.53    3.95
   2  -3   3   52.45    3.54
   2  -3   3   58.12    3.63
   2  -3   3   59.11    3.73
  -2   3  -3   53.48    3.76
  -2   3  -3   60.25    3.98
  -2   3  -3   58.22    3.58
  -2   3  -3   58.87    3.79
   2  -3   4   34.70    3.21
   2  -3   4   35.62    3.28
  -2   3  -4   40.40    3.35
   2  -3   4   37.77    3.25
  -2   3  -4   39.33    3.29
   2  -3   4   36.14    3.22
  -2   3  -4   35.15    3.29
  -2   3  -4   35.46    3.20
  -2   3  -4   38.07    3.25
   2  -3   4   35.85    3.15
   2  -3   4   37.32    3.23
  -2   3  -4   32.54    3.19
   2  -3   4   39.97    3.30
  -2   3  -4   35.33    3.12
   2  -3   4   35.34    3.15
  -2   3  -4   36.61    3.31
  -2   3  -5  130.71    6.38
   2  -3   5  142.87    6.93
  -2   3  -5  130.21    6.34
   2  -3   5  143.59    4.01
   2  -3   5  139.00    6.54
  -2   3  -5  137.95    6.87
  -2   3  -5  135.55    6.66
   2  -3   5  141.81    4.13
   2  -3   5  140.65    6.77
  -2   3  -5  140.33    6.91
   2  -3   5  136.00    6.46
  -2   3  -5  141.92    4.29
   2  -3   5  150.42    6.80
   2  -3   5  137.44    6.61
  -2   3  -5  142.65    7.04
   2  -3   5  141.56    6.59
   2  -3   5  130.92    4.00
  -2   3  -5  140.92    6.64
  -2   3  -5  146.68    6.84
  -2   3  -5  140.02    6.69
   2  -3   5  145.17    3.93
   2  -3   5  139.63    4.00
   2  -3   5  137.57    4.04
   2  -3   5  134.56    6.75
  -2   3  -6  668.37   15.27
  -2   3  -6  682.20   16.16
   2  -3   6  696.50   15.93
   2  -3   6  689.14    9.02
  -2   3  -6  687.49   15.89
   2  -3   6  673.86   15.90
   2  -3   6  680.65   15.24
   2  -3   6  710.48    8.81
  -2   3  -6  708.03    9.98
   2  -3   6  662.78   15.67
  -2   3  -6  686.82   16.18
  -2   3  -6  707.78   10.18
  -2   3  -6  635.21   14.93
   2  -3   6  710.91    9.23
  -2   3  -6  646.99   14.98
   2  -3   6  697.65    9.48
   2  -3   6  686.85   15.51
   2  -3   6  693.09   15.29
   2  -3   6  675.98   15.12
  -2   3  -6  642.44   14.80
   2  -3   6  666.86    9.30
  -2   3  -6  691.96   15.68
   2  -3   6  665.54   15.01
   2  -3   6  669.02    9.00
   2  -3   6  699.76    9.46
  -2   3  -6  648.09   15.36
  -2   3  -6  717.58    9.30
  -2   3  -7    2.32    0.73
  -2   3  -7    3.36    0.86
   2  -3   7    2.61    0.78
   2  -3   7    2.96    0.76
   2  -3   7    3.39    0.65
   2  -3   7    2.66    0.67
   2  -3   7    3.39    0.71
   2  -3   7    3.31    0.82
  -2   3  -7    1.69    0.61
  -2   3  -8  240.85    5.77
   2  -3   8  238.05    4.81
  -2   3  -8  251.28    5.84
   2  -3   8  243.16    5.22
   2  -3   8  236.30    5.39
  -2   3  -8  239.85    4.97
   2  -3   8  235.76    5.41
   2  -3   8  239.45    5.47
   2  -3   8  237.74    4.87
  -2   3  -9   68.54    2.79
   2  -3   9   67.95    2.66
   2  -3   9   67.05    2.48
  -2   3  -9   59.79    2.53
  -2   3  -9   68.83    2.81
  -2   3  -9   67.70    2.37
   2  -3   9   66.16    2.58
   2  -3   9   72.05    2.76
  -2   3  -9   65.99    2.54
   2  -3  10   43.95    1.82
  -2   3 -10   40.33    1.52
  -2   3 -10   44.74    1.72
   2  -3  10   41.66    1.57
   2  -3  10   43.37    1.78
  -2   3 -10   43.48    1.80
  -2   3 -10   43.68    1.88
   2  -2 -13    2.54    0.43
   2  -2 -13    2.73    0.44
  -2   2  13    2.85    0.44
  -2   2  13    2.49    0.45
   2  -2 -12   15.26    1.18
   2  -2 -12   12.70    0.90
   2  -2 -12   13.95    1.12
   2  -2 -12   14.12    1.04
  -2   2  12   14.56    1.12
   2  -2 -12   13.43    0.97
  -2   2  12   15.97    1.22
  -2   2  12   14.03    1.02
  -2   2  12   15.28    1.03
   2  -2 -11  155.96    3.87
   2  -2 -11  157.70    4.12
   2  -2 -11  154.42    3.94
  -2   2  11  157.03    4.13
   2  -2 -11  154.31    3.88
   2  -2 -11  158.86    4.24
  -2   2  11  159.62    4.29
  -2   2  11  161.66    4.08
  -2   2  11  159.58    4.00
  -2   2  10   10.43    1.19
   2  -2 -10   11.27    1.22
   2  -2 -10   10.79    1.26
   2  -2 -10   10.65    1.24
   2  -2 -10   11.38    1.20
  -2   2  10   10.63    1.24
  -2   2  10   10.08    1.04
   2  -2 -10   11.57    1.27
  -2   2  10    9.72    1.22
  -2   2  10    9.15    1.16
  -2   2   9   25.23    1.87
  -2   2   9   24.54    1.84
   2  -2  -9   26.37    1.89
   2  -2  -9   26.74    1.93
  -2   2   9   27.13    1.98
   2  -2  -9   27.65    1.91
   2  -2  -9   26.97    1.87
  -2   2   9   27.66    1.80
  -2   2   9   24.83    1.86
  -2   2   8  360.67   11.38
  -2   2   8  342.07    6.60
   2  -2  -8  338.51   10.43
   2  -2  -8  337.03   11.48
  -2   2   8  327.38   11.13
   2  -2  -8  357.48    6.65
   2  -2  -8  360.20   11.64
   2  -2  -8  334.06    6.42
  -2   2   8  348.40    6.62
   2  -2  -8  353.25   11.45
   2  -2  -8  344.02    6.39
  -2   2   8  369.95   11.45
  -2   2   8  334.18   10.92
   2  -2  -8  342.29   12.24
   2  -2  -8  342.55    6.51
  -2   2   8  349.68   11.15
  -2   2   8  366.46   11.40
   2  -2  -8  357.00   12.25
  -2   2   8  343.99    6.58
   2  -2  -8  331.79   11.16
   2  -2  -8  348.43    6.67
  -2   2   8  343.73   10.77
   2  -2  -8  341.19   11.24
  -2   2   8  344.96   11.05
  -2   2   8  351.47    6.73
  -2   2   8  324.22   10.15
   2  -2  -7  647.21   14.54
   2  -2  -7  589.17   12.98
   2  -2  -7  629.88   15.36
  -2   2   7  617.25   13.87
  -2   2   7  648.95   14.18
   2  -2  -7  646.88   14.56
  -2   2   7  623.43   13.85
   2  -2  -7  646.26   14.44
  -2   2   7  604.88   13.29
   2  -2  -7  624.48   14.19
  -2   2   7  614.42   13.74
  -2   2   7  605.07   13.72
   2  -2  -7  623.13   14.63
   2  -2  -7  608.83   13.42
  -2   2   7  609.82   14.10
  -2   2   7  618.85   13.38
   2  -2  -6 3243.52   28.18
  -2   2   6 3187.32   28.94
  -2   2   6 3186.15   29.11
  -2   2   6 3253.87   28.09
   2  -2  -6 3214.49   30.91
  -2   2   6 3221.09   29.67
   2  -2  -6 3222.12   29.79
   2  -2  -6 3206.92   30.34
  -2   2   6 3214.18   28.99
   2  -2  -6 3323.95   30.72
  -2   2   6 3284.85   29.39
  -2   2   6 3234.49   29.20
   2  -2  -6 3189.87   29.68
   2  -2  -6 3149.36   29.34
   2  -2  -6 3291.47   29.37
  -2   2   6 3283.82   28.98
  -2   2   6 3218.25   29.19
   2  -2  -6 3182.22   32.48
   2  -2  -5  330.51    8.45
  -2   2   5  338.62    8.56
   2  -2  -5  328.79    8.65
  -2   2   5  340.80    8.64
  -2   2   5  325.82    8.44
   2  -2  -5  325.01    9.51
   2  -2  -5  329.98    8.66
   2  -2  -5  329.92    8.61
  -2   2   5  338.88    8.52
  -2   2   5  322.54    8.51
   2  -2  -5  317.68    8.65
   2  -2  -5  328.23    9.05
  -2   2   5  325.12    8.49
   2  -2  -5  318.35    8.55
  -2   2   5  316.66    8.42
  -2   2   5  335.16    8.60
   2  -2  -5  307.88    8.73
  -2   2   5  322.14    8.05
  -2   2   4   43.13    2.88
   2  -2  -4   39.96    2.43
  -2   2   4   43.59    2.88
   2  -2  -4   38.13    3.06
   2  -2  -4   39.93    2.78
   2  -2  -4   42.02    3.02
   2  -2  -4   41.32    2.95
   2  -2  -4   40.79    2.86
   2  -2  -4   40.88    2.83
  -2   2   4   43.19    2.84
   2  -2  -4   41.91    2.81
  -2   2   4   44.27    2.91
  -2   2   4   42.10    2.79
   2  -2  -4   42.87    3.07
  -2   2   4   40.82    2.76
   2  -2  -4   40.78    2.96
  -2   2   4   40.98    2.88
  -2   2   4   41.18    2.77
  -2   2   4   43.49    2.70
  -2   2   3  518.30    8.55
   2  -2  -3  513.52    9.00
   2  -2  -3  511.02    9.05
  -2   2   3  514.62    9.02
  -2   2   3  506.11    8.90
  -2   2   3  504.64    8.90
   2  -2  -3  513.03    8.49
  -2   2   3  486.38    8.76
  -2   2   3  509.04    8.94
   2  -2  -3  502.94    8.92
   2  -2  -3  509.22    9.41
   2  -2  -3  490.19    8.98
   2  -2  -3  497.07    8.99
  -2   2   3  486.47    8.15
   2  -2  -3  493.46    9.67
  -2   2   3  507.67    9.09
   2  -2  -3  500.33    9.62
   2  -2  -3  489.73    9.47
  -2   2   3  499.97    9.20
  -2   2   2  714.65    9.97
   2  -2  -2  680.13    9.96
   2  -2  -2  701.23   10.12
  -2   2   2  675.48    8.77
   2  -2  -2  725.91    6.43
  -2   2   2  722.92   10.07
   2  -2  -2  684.85   10.01
  -2   2   2  687.73    9.76
   2  -2  -2  689.06   10.59
  -2   2   2  718.72    9.97
  -2   2   2  677.34    9.70
   2  -2  -2  713.38   11.09
   2  -2  -2  716.67   10.49
   2  -2  -2  708.12    9.86
  -2   2   2  725.39   10.15
   2  -2  -2  705.76   10.98
  -2   2   2  722.25   10.62
  -2   2   2  718.90   10.25
   2  -2  -2  681.36    9.84
   2  -2  -2  711.14    9.95
   2  -2  -1  823.33    8.51
  -2   2   1  828.67    8.98
  -2   2   1  838.92   10.26
  -2   2   1  862.56   10.33
  -2   2   1  826.28   10.16
   2  -2  -1  839.64   10.56
  -2   2   1  841.21   10.30
   2  -2  -1  819.55   10.07
   2  -2  -1  839.29   10.85
  -2   2   1  815.51    9.95
   2  -2  -1  840.18   10.38
  -2   2   1  835.86   10.48
   2  -2  -1  830.66   10.18
  -2   2   1  876.72   10.49
   2  -2  -1  814.35   10.16
   2  -2  -1  853.16   11.94
  -2   2   1  855.91   11.15
  -2   2   1  801.18   10.12
   2  -2  -1  836.18   11.26
  -2   2   0  171.87    4.67
   2  -2   0  160.45    4.31
   2  -2   0  182.33    5.58
  -2   2   0  162.02    4.48
   2  -2   0  156.99    3.14
  -2   2   0  157.27    4.60
  -2   2   0  162.38    4.49
  -2   2   0  160.68    4.49
   2  -2   0  178.49    4.68
   2  -2   0  160.46    4.75
   2  -2   0  177.14    4.75
   2  -2   0  164.32    4.67
  -2   2   0  162.65    4.70
   2  -2   0  178.70    4.67
  -2   2   0  158.25    4.41
  -2   2   0  163.93    3.98
  -2   2   0  158.65    4.82
  -2   2   0  163.02    4.20
   2  -2   0  177.01    4.70
  -2   2  -1   48.65    2.56
   2  -2   1   47.37    2.61
  -2   2  -1   52.71    2.66
  -2   2  -1   49.39    2.61
   2  -2   1   47.97    2.24
   2  -2   1   49.32    2.22
  -2   2  -1   48.82    2.67
   2  -2   1   48.29    2.65
   2  -2   1   49.21    2.57
   2  -2   1   50.48    2.61
  -2   2  -1   50.30    2.61
   2  -2   1   52.30    3.15
   2  -2   1   47.68    2.55
  -2   2  -1   48.53    2.74
   2  -2   1   48.55    2.61
   2  -2   1   45.79    1.60
  -2   2  -1   47.77    2.76
  -2   2  -1   49.01    2.28
  -2   2  -1   50.65    2.08
   2  -2   2   35.04    1.69
   2  -2   2   40.06    2.42
  -2   2  -2   33.00    2.30
  -2   2  -2   32.69    2.35
  -2   2  -2   33.90    2.27
  -2   2  -2   35.72    2.33
   2  -2   2   32.57    2.23
   2  -2   2   37.96    2.57
  -2   2  -2   33.84    2.24
   2  -2   2   33.18    2.33
  -2   2  -2   33.84    2.48
   2  -2   2   33.42    2.30
   2  -2   2   33.81    2.28
   2  -2   2   32.84    2.24
  -2   2  -2   34.92    2.27
   2  -2   2   34.30    2.30
   2  -2   2   33.25    1.77
  -2   2  -2   30.85    2.32
  -2   2  -2   37.83    2.20
  -2   2  -3   43.49    2.76
  -2   2  -3   44.06    2.80
   2  -2   3   45.36    2.83
   2  -2   3   48.48    3.14
   2  -2   3   45.27    2.82
   2  -2   3   42.19    2.80
  -2   2  -3   44.66    2.83
   2  -2   3   45.11    2.96
  -2   2  -3   46.74    3.00
   2  -2   3   44.81    2.82
   2  -2   3   43.71    2.77
   2  -2   3   45.04    2.88
  -2   2  -3   48.41    3.24
  -2   2  -3   47.21    2.94
   2  -2   3   45.90    2.46
  -2   2  -3   45.97    2.98
  -2   2  -3   37.86    2.61
  -2   2  -3   43.67    2.93
   2  -2   4   19.32    2.26
  -2   2  -4   17.73    2.00
   2  -2   4   17.50    2.10
  -2   2  -4   16.87    2.01
  -2   2  -4   20.12    2.14
   2  -2   4   17.41    1.92
  -2   2  -4   18.20    1.99
  -2   2  -4   18.66    2.05
   2  -2   4   17.65    2.03
   2  -2   4   18.97    2.04
   2  -2   4   19.47    2.02
   2  -2   4   18.22    1.98
   2  -2   4   18.84    2.03
   2  -2   4   14.47    1.66
  -2   2  -4   18.06    2.07
  -2   2  -4   19.12    2.18
  -2   2  -4   21.08    2.38
   2  -2   5 1138.37   17.75
   2  -2   5 1134.71   17.94
  -2   2  -5 1169.16   18.08
  -2   2  -5 1169.73   18.40
  -2   2  -5 1169.55   17.32
  -2   2  -5 1169.95   17.11
   2  -2   5 1172.22   17.03
  -2   2  -5 1172.04   17.13
   2  -2   5 1162.81   17.18
  -2   2  -5 1152.76   17.56
  -2   2  -5 1143.43   16.80
  -2   2  -5 1115.99   17.95
   2  -2   5 1130.93   15.98
   2  -2   5 1180.63   16.95
   2  -2   5 1146.96   16.84
   2  -2   5 1102.38   17.04
  -2   2  -5 1109.72   16.74
   2  -2   5 1146.86   16.74
   2  -2   6   83.15    5.17
  -2   2  -6   88.95    5.34
  -2   2  -6   88.21    5.21
  -2   2  -6   81.75    5.26
   2  -2   6   85.38    3.18
  -2   2  -6   86.58    5.36
   2  -2   6   81.27    5.30
  -2   2  -6   81.64    4.95
   2  -2   6   84.86    5.01
   2  -2   6   81.13    5.02
   2  -2   6   89.06    5.18
   2  -2   6   84.03    4.95
  -2   2  -6   89.49    5.46
   2  -2   6   85.57    4.99
  -2   2  -6   87.76    5.08
   2  -2   6   83.69    3.19
  -2   2  -6   83.55    4.93
   2  -2   6   87.50    3.19
  -2   2  -6   85.52    5.06
   2  -2   6   87.94    5.09
   2  -2   7   63.48    4.74
   2  -2   7   62.59    4.71
   2  -2   7   67.15    2.94
  -2   2  -7   62.47    4.68
  -2   2  -7   71.70    4.95
  -2   2  -7   64.84    5.09
  -2   2  -7   66.17    4.84
   2  -2   7   68.05    2.95
   2  -2   7   66.72    4.71
  -2   2  -7   66.81    4.76
   2  -2   7   62.11    4.61
  -2   2  -7   66.87    4.96
   2  -2   7   66.24    4.65
  -2   2  -7   70.72    4.85
   2  -2   7   67.50    4.70
   2  -2   7   71.06    3.10
   2  -2   7   65.51    4.67
  -2   2  -7   67.54    2.86
   2  -2   7   66.23    2.82
   2  -2   7   67.09    2.92
  -2   2  -7   54.59    4.58
  -2   2  -7   64.00    2.89
   2  -2   8   17.71    1.48
  -2   2  -8   17.19    1.57
  -2   2  -8   16.34    1.63
   2  -2   8   19.37    1.65
   2  -2   8   18.36    1.59
  -2   2  -8   17.00    1.52
   2  -2   8   17.69    1.61
  -2   2  -8   16.62    1.38
   2  -2   8   16.96    1.53
   2  -2   9  162.29    4.38
  -2   2  -9  162.26    4.64
   2  -2   9  160.41    4.40
  -2   2  -9  166.18    4.78
  -2   2  -9  164.39    4.31
  -2   2  -9  167.07    4.08
   2  -2   9  159.60    4.52
   2  -2   9  164.26    4.02
   2  -2   9  165.98    4.47
  -2   2  -9  158.75    4.50
  -2   2 -10   45.20    1.85
   2  -2  10   45.53    2.19
  -2   2 -10   47.57    2.31
  -2   2 -10   48.11    2.22
   2  -2  10   49.97    2.22
   2  -2  10   48.27    2.18
  -2   2 -10   45.37    2.15
  -2   2 -10   47.97    2.08
   2  -2  10   48.31    2.15
   2  -2  11  237.22    3.82
  -2   2 -11  240.29    4.12
  -2   2 -11  227.74    3.58
   2  -2  11  230.93    3.74
   2  -2  11  236.21    3.95
  -2   2 -11  234.50    3.53
   2  -2  11  232.21    3.62
  -2   2 -11  242.33    3.96
   2  -1 -13  153.15    2.46
   2  -1 -13  151.68    2.45
  -2   1  13  151.00    2.51
  -2   1  13  148.63    2.45
   2  -1 -12   52.06    2.08
   2  -1 -12   50.82    1.70
   2  -1 -12   51.72    1.96
  -2   1  12   52.11    2.07
  -2   1  12   48.64    1.65
  -2   1  12   54.44    2.16
   2  -1 -12   51.51    2.06
  -2   1  11   64.26    2.42
   2  -1 -11   61.05    2.34
   2  -1 -11   64.00    2.64
   2  -1 -11   65.57    2.76
   2  -1 -11   64.39    2.75
  -2   1  11   66.59    2.77
  -2   1  11   65.42    2.44
   2  -1 -11   64.01    2.39
   2  -1 -11   65.28    2.47
  -2   1  11   72.88    2.95
  -2   1  11   63.11    2.39
  -2   1  10   35.64    2.03
   2  -1 -10   36.68    2.06
  -2   1  10   36.57    2.27
   2  -1 -10   38.35    2.29
   2  -1 -10   33.62    2.10
   2  -1 -10   38.42    2.11
  -2   1  10   35.44    2.20
   2  -1 -10   38.28    2.11
   2  -1 -10   37.63    2.30
  -2   1  10   35.72    2.06
  -2   1  10   37.15    2.09
  -2   1   9   74.90    3.05
   2  -1  -9   73.17    3.01
   2  -1  -9   73.61    3.17
  -2   1   9   76.06    3.25
   2  -1  -9   74.42    3.22
  -2   1   9   77.06    3.24
  -2   1   9   73.50    2.97
   2  -1  -9   78.68    3.11
   2  -1  -9   76.40    3.03
   2  -1  -9   74.96    3.12
  -2   1   9   70.33    2.96
  -2   1   8  192.01    4.77
   2  -1  -8  195.42    8.00
  -2   1   8  200.57    8.44
  -2   1   8  198.12    8.39
   2  -1  -8  196.18    4.85
   2  -1  -8  195.57    8.52
   2  -1  -8  204.66    5.12
   2  -1  -8  182.23    7.83
   2  -1  -8  196.50    4.92
   2  -1  -8  208.84    9.28
  -2   1   8  201.75    8.44
  -2   1   8  205.36    8.50
  -2   1   8  198.29    8.66
  -2   1   8  195.18    8.05
  -2   1   8  213.92    5.24
   2  -1  -8  188.59    4.72
  -2   1   8  202.31    8.43
  -2   1   8  204.27    8.45
   2  -1  -8  195.50    8.68
   2  -1  -8  195.32    8.49
   2  -1  -8  191.11    4.99
  -2   1   8  196.06    5.02
   2  -1  -8  191.86    9.02
   2  -1  -8  200.62    8.63
  -2   1   8  185.19    4.71
  -2   1   7  629.12   13.77
   2  -1  -7  618.48   13.25
  -2   1   7  659.77   14.07
   2  -1  -7  639.91   13.65
  -2   1   7  646.90   13.96
  -2   1   7  659.25   14.01
   2  -1  -7  655.85   14.30
  -2   1   7  635.48   14.35
   2  -1  -7  642.28   14.15
  -2   1   7  629.06   13.36
  -2   1   7  630.57   12.67
   2  -1  -7  653.77   14.69
   2  -1  -7  648.89   15.17
   2  -1  -7  651.96   14.38
  -2   1   7  670.86   14.11
   2  -1  -7  635.35   15.30
  -2   1   7  644.01   13.87
   2  -1  -6   11.64    1.77
   2  -1  -6   11.88    1.83
   2  -1  -6   13.40    1.92
   2  -1  -6   11.48    1.71
  -2   1   6   10.45    1.74
  -2   1   6   10.69    1.68
   2  -1  -6    9.29    1.75
  -2   1   6   13.53    1.91
  -2   1   6   11.73    1.76
  -2   1   6   11.39    1.78
   2  -1  -6   10.46    1.77
  -2   1   6   10.98    1.74
  -2   1   6   11.46    1.84
   2  -1  -6   12.64    1.69
  -2   1   6    9.73    1.66
   2  -1  -6   11.11    1.76
  -2   1   5  124.32    5.02
   2  -1  -5  132.43    5.34
   2  -1  -5  126.27    5.61
   2  -1  -5  130.43    5.10
  -2   1   5  131.83    5.36
  -2   1   5  124.18    5.00
  -2   1   5  133.64    4.96
   2  -1  -5  134.01    5.30
  -2   1   5  127.13    5.07
   2  -1  -5  128.67    5.20
  -2   1   5  126.12    5.00
  -2   1   5  131.10    5.11
   2  -1  -5  130.31    5.40
  -2   1   5  126.72    5.03
   2  -1  -5  118.69    4.69
  -2   1   5  130.96    5.06
   2  -1  -5  128.00    5.17
   2  -1  -5  131.66    5.21
   2  -1  -4  997.43    9.08
  -2   1   4  981.89   12.48
  -2   1   4  982.05   12.59
  -2   1   4  960.48   12.30
   2  -1  -4  964.54   14.01
   2  -1  -4  990.03   13.06
  -2   1   4  976.77   11.95
   2  -1  -4  985.57   12.80
  -2   1   4  973.07   12.52
   2  -1  -4  982.88   12.69
  -2   1   4  983.21   12.47
  -2   1   4 1000.05   12.55
   2  -1  -4  978.52   13.02
   2  -1  -4 1008.69   13.52
   2  -1  -4  993.29   12.80
  -2   1   4  984.15   12.72
   2  -1  -4  989.50   12.45
  -2   1   4 1013.41   13.12
   2  -1  -3  812.87   10.69
  -2   1   3  830.34   10.27
   2  -1  -3  837.23   11.01
  -2   1   3  847.00   10.44
   2  -1  -3  862.09    8.57
   2  -1  -3  820.91   11.67
   2  -1  -3  846.48   10.56
   2  -1  -3  857.48   10.90
   2  -1  -3  843.78   10.51
  -2   1   3  860.27   10.42
  -2   1   3  865.98   10.59
  -2   1   3  857.59   10.56
  -2   1   3  824.52   10.79
   2  -1  -3  897.92   11.07
  -2   1   3  826.83   10.34
   2  -1  -3  867.20   10.72
  -2   1   3  868.55    9.85
   2  -1  -3  842.14   11.18
  -2   1   3  848.83   10.63
  -2   1   2  352.13    5.84
   2  -1  -2  323.75    6.16
  -2   1   2  347.18    5.95
   2  -1  -2  346.02    6.48
   2  -1  -2  359.54    5.70
  -2   1   2  352.83    5.99
  -2   1   2  351.98    6.47
   2  -1  -2  348.26    3.88
  -2   1   2  347.99    5.97
  -2   1   2  350.05    6.00
   2  -1  -2  339.83    5.95
   2  -1  -2  338.01    6.19
   2  -1  -2  340.71    6.05
  -2   1   2  360.00    5.53
  -2   1   2  349.18    5.96
   2  -1  -2  348.99    6.01
  -2   1   2  349.60    6.09
   2  -1  -2  351.22    6.65
   2  -1  -2  356.62    6.73
   2  -1  -2  338.21    5.99
  -2   1   1 1094.68    8.31
  -2   1   1 1078.14    9.68
   2  -1  -1 1028.43    9.96
   2  -1  -1 1034.57   10.30
   2  -1  -1 1018.89    9.53
   2  -1  -1 1067.03    8.25
  -2   1   1 1025.78    9.39
  -2   1   1  991.95    9.19
  -2   1   1  998.62    9.24
  -2   1   1 1025.58    9.27
   2  -1  -1 1031.02    9.39
  -2   1   1 1047.09    8.18
   2  -1  -1 1055.96   10.36
   2  -1  -1 1037.93   11.17
   2  -1  -1 1046.99    9.58
   2  -1  -1  989.33   10.02
  -2   1   1  999.54    9.42
  -2   1   1 1065.65   10.17
  -2   1   1 1100.87   10.87
   2  -1  -1 1051.73    9.43
  -2   1   0 2502.49   14.01
   2  -1   0 2604.18   14.25
   2  -1   0 2622.12   14.79
   2  -1   0 2650.96   17.53
  -2   1   0 2457.36   13.90
  -2   1   0 2616.51   14.24
  -2   1   0 2546.53   15.98
   2  -1   0 2593.42   14.60
   2  -1   0 2518.29   14.39
  -2   1   0 2634.84   14.90
   2  -1   0 2653.79   14.38
  -2   1   0 2438.49   13.83
  -2   1   0 2446.37   13.86
  -2   1   0 2597.86   11.88
  -2   1   0 2743.59   14.86
  -2   1   0 2555.39   16.11
   2  -1   0 2444.50   14.80
   2  -1   0 2607.10   14.32
  -2   1  -1  147.73    2.98
   2  -1   1  137.61    3.85
  -2   1  -1  145.43    3.46
   2  -1   1  148.33    3.64
  -2   1  -1  147.12    3.53
   2  -1   1  144.40    3.43
  -2   1  -1  148.47    3.47
   2  -1   1  144.15    3.48
  -2   1  -1  145.63    3.43
   2  -1   1  136.86    3.37
   2  -1   1  140.96    3.29
  -2   1  -1  136.00    3.49
   2  -1   1  146.61    3.48
  -2   1  -1  147.85    4.09
   2  -1   1  143.96    3.52
   2  -1   1  146.10    3.51
   2  -1   1  143.22    2.04
  -2   1  -1  144.59    2.95
  -2   1  -1  153.51    4.00
  -2   1  -1  145.29    3.44
   2  -1   2   30.61    2.04
  -2   1  -2   29.22    1.74
   2  -1   2   29.57    1.48
   2  -1   2   29.43    1.80
   2  -1   2   27.79    1.71
  -2   1  -2   30.11    2.03
  -2   1  -2   28.67    1.80
   2  -1   2   31.23    1.49
   2  -1   2   29.56    1.73
   2  -1   2   30.00    1.76
  -2   1  -2   29.03    1.71
  -2   1  -2   30.29    1.82
   2  -1   2   31.36    1.78
  -2   1  -2   30.33    1.90
  -2   1  -2   28.18    1.70
  -2   1  -2   29.99    0.91
   2  -1   2   27.91    1.67
  -2   1  -2   34.75    1.69
  -2   1  -2   29.88    1.75
   2  -1   3  269.68    6.56
  -2   1  -3  268.98    5.86
  -2   1  -3  270.12    5.95
   2  -1   3  271.27    4.11
   2  -1   3  270.76    5.84
   2  -1   3  268.72    5.77
   2  -1   3  276.57    5.88
  -2   1  -3  263.99    5.75
  -2   1  -3  269.47    6.11
   2  -1   3  269.96    6.36
   2  -1   3  273.31    5.94
   2  -1   3  283.17    5.92
  -2   1  -3  264.34    6.46
   2  -1   3  271.48    5.52
  -2   1  -3  267.32    5.98
  -2   1  -3  266.39    5.81
   2  -1   4  936.68   13.37
   2  -1   4  925.90   12.07
   2  -1   4  942.64   12.38
  -2   1  -4  926.36   13.27
   2  -1   4  935.64   12.09
   2  -1   4  920.61   13.43
  -2   1  -4  953.49   12.60
  -2   1  -4  914.09   12.00
  -2   1  -4  957.66   12.32
  -2   1  -4  920.26   12.04
   2  -1   4  944.28   12.19
   2  -1   4  918.88   11.93
  -2   1  -4  926.19   12.05
   2  -1   4  919.57   12.08
   2  -1   4  886.44   11.85
  -2   1  -4  863.88   11.78
  -2   1  -4  942.55   12.91
   2  -1   5  782.04   13.34
   2  -1   5  738.84   11.97
   2  -1   5  764.39   13.69
  -2   1  -5  784.04   12.83
  -2   1  -5  775.16   12.43
  -2   1  -5  763.86   12.34
  -2   1  -5  736.39   13.77
  -2   1  -5  790.65   12.61
   2  -1   5  764.40   12.28
  -2   1  -5  803.94   13.34
  -2   1  -5  799.25   12.35
   2  -1   5  765.59   12.44
   2  -1   5  788.52   12.42
  -2   1  -5  791.16   13.40
   2  -1   5  768.62   12.25
  -2   1  -5  766.04   12.30
   2  -1   5  776.37   12.41
   2  -1   5  764.72   12.53
  -2   1  -6   65.40    4.16
   2  -1   6   62.38    3.88
   2  -1   6   65.47    4.16
  -2   1  -6   62.12    4.18
  -2   1  -6   63.81    4.40
   2  -1   6   61.85    3.87
  -2   1  -6   57.15    3.80
  -2   1  -6   63.09    3.99
   2  -1   6   62.83    3.99
   2  -1   6   63.66    3.92
  -2   1  -6   69.02    4.33
  -2   1  -6   60.63    3.89
  -2   1  -6   60.88    3.95
   2  -1   6   65.70    4.00
  -2   1  -6   62.61    4.03
   2  -1   6   60.48    3.83
   2  -1   7   12.61    1.96
   2  -1   7   13.83    2.01
  -2   1  -7   16.64    2.28
   2  -1   7   13.53    1.28
  -2   1  -7   12.15    1.89
  -2   1  -7   14.80    2.17
  -2   1  -7   16.56    2.41
  -2   1  -7   16.46    2.30
  -2   1  -7   12.83    2.05
   2  -1   7   12.49    2.04
   2  -1   7   17.66    2.35
   2  -1   7   17.79    2.29
  -2   1  -7   11.20    2.08
   2  -1   7   13.38    1.30
   2  -1   7   15.01    2.28
   2  -1   7   17.71    2.25
  -2   1  -7   14.21    1.34
  -2   1  -7   12.97    2.08
   2  -1   7   13.55    1.36
   2  -1   7   13.13    1.25
   2  -1   7   14.97    1.35
  -2   1  -7   11.93    1.96
   2  -1   7   13.91    1.35
   2  -1   8  839.62   10.71
  -2   1  -8  824.78   10.36
  -2   1  -8  799.07    9.70
   2  -1   8  854.91   10.32
   2  -1   8  821.40   10.48
  -2   1  -8  823.28   16.88
   2  -1   8  964.28   17.67
   2  -1   8  915.99   17.32
   2  -1   8  891.52   17.12
   2  -1   8  846.06   10.07
   2  -1   8  871.57   10.29
   2  -1   8  839.64   10.12
  -2   1  -8  850.39   10.80
   2  -1   9    3.75    0.84
  -2   1  -9    3.22    0.72
   2  -1   9    3.64    0.87
   2  -1   9    4.18    0.83
   2  -1   9    3.47    0.72
  -2   1  -9    3.61    0.77
   2  -1   9    3.40    0.70
  -2   1  -9    4.62    0.96
   2  -1   9    3.37    0.79
  -2   1 -10  181.31    4.64
   2  -1  10  176.54    4.37
  -2   1 -10  177.07    4.26
  -2   1 -10  181.40    4.85
  -2   1 -10  185.68    4.64
   2  -1  10  178.05    4.63
   2  -1  10  190.16    4.86
   2  -1  10  175.83    3.97
   2  -1  10  182.29    4.32
  -2   1 -10  183.74    4.75
  -2   1 -11   19.71    1.42
   2  -1  11   20.15    1.42
  -2   1 -11   18.55    1.19
  -2   1 -11   19.24    1.29
  -2   1 -11   18.81    1.32
   2  -1  11   20.88    1.46
   2  -1  11   20.09    1.28
   2  -1  11   20.28    1.25
  -2   1 -11   19.08    1.42
  -2   1 -12   44.27    1.45
  -2   1 -12   42.49    1.53
   2  -1  12   44.08    1.56
  -2   1 -12   45.42    1.60
   2  -1  12   43.58    1.59
  -2   0  12   65.23    1.98
   2   0 -12   73.86    2.35
   2   0 -12   69.93    2.23
  -2   0  12   71.71    2.32
   2   0 -12   69.49    2.03
   2   0 -12   72.29    2.31
  -2   0  12   70.92    2.31
  -2   0  11   19.63    1.41
   2   0 -11   20.67    1.57
   2   0 -11   20.79    1.59
  -2   0  11   20.48    1.27
  -2   0  11   20.75    1.56
   2   0 -11   21.18    1.48
  -2   0  11   18.55    1.45
   2   0 -11   20.42    1.54
   2   0 -10   92.57    3.15
  -2   0  10   97.65    3.57
   2   0 -10   97.27    3.65
   2   0 -10   99.64    3.60
   2   0 -10   97.15    3.45
  -2   0  10   94.89    3.36
   2   0 -10   96.29    3.61
  -2   0  10   97.45    3.60
  -2   0  10   93.15    3.12
   2   0 -10   96.88    3.14
   2   0  -9  166.54    4.37
   2   0  -9  164.33    4.42
   2   0  -9  158.99    4.68
   2   0  -9  176.72    4.98
  -2   0   9  163.60    4.54
   2   0  -9  165.84    4.62
   2   0  -9  163.91    4.81
  -2   0   9  172.69    4.85
  -2   0   9  169.72    4.82
  -2   0   9  164.26    4.37
   2   0  -8    7.64    1.97
  -2   0   8    4.86    1.50
   2   0  -8    6.78    0.97
   2   0  -8    3.80    0.74
   2   0  -8    3.22    1.15
   2   0  -8    5.09    0.94
   2   0  -8    4.54    1.50
  -2   0   8    5.92    1.42
  -2   0   8    4.04    1.25
   2   0  -8    4.60    1.35
  -2   0   8    3.96    1.23
   2   0  -8    5.53    1.59
  -2   0   8    5.40    0.88
   2   0  -8    3.46    1.30
   2   0  -8    4.34    0.75
   2   0  -8    4.99    1.53
  -2   0   8    4.18    1.36
   2   0  -8    4.76    0.76
   2   0  -8    8.67    1.16
  -2   0   8    5.44    0.92
  -2   0   8    3.70    1.24
  -2   0   8    4.56    1.32
  -2   0   8    8.33    1.12
  -2   0   8    4.77    1.43
  -2   0   8    6.01    0.93
   2   0  -7  266.43    8.86
  -2   0   7  258.62    9.25
  -2   0   7  255.59    8.82
   2   0  -7  276.33    9.34
   2   0  -7  263.25    9.34
   2   0  -7  258.54    9.60
   2   0  -7  262.62    9.17
  -2   0   7  267.34    9.06
  -2   0   7  259.16    8.90
  -2   0   7  250.10    8.97
  -2   0   7  268.06    9.04
   2   0  -7  262.43    9.17
   2   0  -7  263.11    9.87
  -2   0   7  267.88    9.01
  -2   0   7  251.76    8.83
  -2   0   6   89.57    4.76
   2   0  -6   91.29    5.29
  -2   0   6   94.01    4.83
   2   0  -6   98.63    5.35
  -2   0   6   94.34    4.83
   2   0  -6  102.71    5.18
   2   0  -6   95.53    4.99
   2   0  -6   94.10    4.81
   2   0  -6   93.28    4.58
   2   0  -6   98.06    5.05
  -2   0   6   96.09    4.99
  -2   0   6   91.87    4.34
  -2   0   6   98.42    4.38
  -2   0   6  105.39    5.11
  -2   0   6   94.07    5.05
  -2   0   6   95.31    4.88
  -2   0   6   95.88    4.89
   2   0  -6   96.44    5.11
   2   0  -5 1397.30   16.73
   2   0  -5 1371.39   16.74
  -2   0   5 1378.52   16.39
  -2   0   5 1423.28   14.56
  -2   0   5 1372.61   16.36
   2   0  -5 1318.04   17.82
   2   0  -5 1367.93   17.75
   2   0  -5 1446.27   15.95
  -2   0   5 1333.69   16.29
   2   0  -5 1402.79   16.99
  -2   0   5 1317.84   17.01
  -2   0   5 1407.00   16.51
  -2   0   5 1363.01   16.33
   2   0  -5 1423.54   17.41
  -2   0   5 1366.88   16.36
  -2   0   5 1400.25   16.86
  -2   0   5 1348.85   15.29
   2   0  -5 1403.76   13.93
   2   0  -5 1403.31   16.82
   2   0  -4 1453.61   15.26
   2   0  -4 1408.00   14.92
  -2   0   4 1417.69   12.56
  -2   0   4 1390.00   14.46
  -2   0   4 1368.17   14.39
   2   0  -4 1380.88   15.92
   2   0  -4 1458.23   15.32
   2   0  -4 1438.20   15.57
   2   0  -4 1381.39   14.74
  -2   0   4 1363.57   15.40
  -2   0   4 1410.55   14.61
  -2   0   4 1368.54   14.32
   2   0  -4 1344.18   13.73
  -2   0   4 1405.02   14.37
  -2   0   4 1377.54   14.58
   2   0  -4 1399.97   12.86
  -2   0   4 1389.79   14.49
  -2   0   3   24.24    1.41
  -2   0   3   23.79    1.68
   2   0  -3   24.46    0.96
   2   0  -3   25.54    1.69
  -2   0   3   31.03    2.07
  -2   0   3   22.56    1.65
   2   0  -3   23.28    1.72
   2   0  -3   23.56    1.91
   2   0  -3   24.53    1.75
   2   0  -3   23.10    1.70
  -2   0   3   23.23    1.68
  -2   0   3   22.50    1.67
   2   0  -3   23.20    1.78
  -2   0   3   24.55    1.72
  -2   0   3   24.50    1.68
   2   0  -3   25.51    1.57
  -2   0   3   23.04    1.66
   2   0  -3   23.04    1.75
  -2   0   2  749.64    5.92
   2   0  -2  713.69    7.87
  -2   0   2  703.73    7.56
   2   0  -2  690.43    6.06
  -2   0   2  727.67    7.76
  -2   0   2  711.48    7.67
  -2   0   2  736.46    8.50
   2   0  -2  700.33    8.64
   2   0  -2  707.19    7.83
   2   0  -2  707.93    8.00
   2   0  -2  701.26    7.81
   2   0  -2  688.53    7.70
  -2   0   2  704.98    7.55
  -2   0   2  730.98    7.76
   2   0  -2  740.59    8.60
   2   0  -2  696.12    8.12
  -2   0   2  715.53    8.63
  -2   0   2  754.92    7.44
  -2   0   2  722.18    7.73
   2   0  -2  740.82    7.84
  -2   0   1    3.12    0.46
   2   0  -1    2.87    0.45
   2   0  -1    2.97    0.57
   2   0  -1    2.52    0.47
   2   0  -1    2.53    0.47
  -2   0   1    2.94    0.41
  -2   0   1    3.11    0.47
   2   0  -1    3.09    0.49
  -2   0   1    3.53    0.56
  -2   0   1    2.89    0.46
   2   0  -1    3.44    0.52
  -2   0   1    2.89    0.48
   2   0  -1    2.51    0.48
  -2   0   1    3.32    0.32
  -2   0   1    3.17    0.50
   2   0  -1    3.39    0.60
  -2   0   1    2.40    0.56
   2   0  -1    3.88    0.53
   2   0   0 1452.39    9.78
  -2   0   0 1409.51    7.41
  -2   0   0 1461.64    7.31
   2   0   0 1454.06   10.09
  -2   0   0 1421.58    7.36
   2   0   0 1397.24   10.16
  -2   0   0 1397.66    7.39
  -2   0   0 1408.94    7.33
   2   0   0 1418.13    7.89
   2   0   0 1398.30    7.42
  -2   0   0 1365.09    4.49
   2   0   0 1382.48    7.61
   2   0   0 1351.76    7.42
  -2   0   0 1297.29    7.24
   2   0   0 1388.98    7.39
  -2   0   0 1472.99    5.18
   2   0   0 1401.12    8.01
  -2   0   0 1430.26    9.77
  -2   0   0 1428.02    7.57
   2   0   1 4027.65   18.48
   2   0   1 4075.70   17.36
   2   0   1 3934.68   12.48
  -2   0  -1 3942.82   12.98
  -2   0  -1 4140.51   12.49
  -2   0  -1 4130.91   18.29
  -2   0  -1 4121.11   12.81
  -2   0  -1 4042.51   12.40
   2   0   1 4021.39   12.63
   2   0   1 4017.99   12.82
   2   0   1 3877.65   12.42
  -2   0  -1 4153.76   12.43
   2   0   1 4102.36   13.11
  -2   0  -1 4199.50   16.35
   2   0   1 3978.26   12.43
  -2   0  -1 4146.55   12.38
  -2   0  -1 3819.30   13.78
   2   0   2 5649.32   24.30
  -2   0  -2 5791.18   19.42
   2   0   2 5817.29   20.36
   2   0   2 5804.01   18.72
  -2   0  -2 5801.31   18.70
   2   0   2 5844.22   18.53
  -2   0  -2 5779.13   18.36
  -2   0  -2 5835.94   23.45
   2   0   2 5857.13   18.47
   2   0   2 5772.46   18.37
  -2   0  -2 5854.29   18.27
   2   0   2 5805.71   18.46
  -2   0  -2 5676.14   12.77
  -2   0  -2 5863.79   20.37
  -2   0  -2 5981.00   18.58
   2   0   3  868.71   10.50
   2   0   3  847.54    7.92
   2   0   3  807.93    8.30
  -2   0  -3  839.83    8.46
  -2   0  -3  791.42    8.85
  -2   0  -3  836.48    8.77
  -2   0  -3  862.13    8.61
   2   0   3  814.84    8.37
  -2   0  -3  824.35    9.74
   2   0   3  820.82    8.58
  -2   0  -3  851.55    8.53
  -2   0  -3  852.64    8.70
   2   0   3  829.15    8.49
   2   0   3  793.01    8.27
   2   0   3  825.16    8.48
  -2   0  -3  920.00    8.90
  -2   0  -4 1277.43   12.46
   2   0   4 1389.12   14.58
   2   0   4 1366.67   12.70
   2   0   4 1324.94   12.56
   2   0   4 1326.04   10.62
  -2   0  -4 1380.95   15.68
  -2   0  -4 1322.30   13.19
   2   0   4 1318.12   12.58
   2   0   4 1309.02   12.75
  -2   0  -4 1341.40   13.89
   2   0   4 1307.09   12.45
  -2   0  -4 1297.62   12.71
   2   0   4 1348.19   12.70
  -2   0  -4 1325.55   13.56
  -2   0  -4 1310.85   12.07
  -2   0  -4 1340.71   12.83
  -2   0  -4 1314.80   12.82
   2   0   5  154.94    5.00
   2   0   5  163.61    5.50
  -2   0  -5  151.51    5.50
   2   0   5  150.87    4.88
   2   0   5  152.19    4.30
  -2   0  -5  165.68    5.43
  -2   0  -5  158.09    5.96
  -2   0  -5  154.96    5.23
  -2   0  -5  153.36    5.04
   2   0   5  155.14    5.00
  -2   0  -5  159.44    5.08
  -2   0  -5  155.77    5.01
   2   0   5  152.68    5.05
  -2   0  -5  160.77    5.10
   2   0   5  155.45    5.01
  -2   0  -5  148.26    5.26
  -2   0  -5  154.56    4.67
   2   0   5  148.62    4.88
   2   0   6 1590.28   18.71
   2   0   6 1559.78   17.74
  -2   0  -6 1567.93   20.64
  -2   0  -6 1595.89   19.43
  -2   0  -6 1628.56   18.55
   2   0   6 1562.08   17.79
  -2   0  -6 1602.58   18.27
  -2   0  -6 1591.25   18.11
   2   0   6 1576.63   18.24
   2   0   6 1602.67   18.03
  -2   0  -6 1629.60   18.64
  -2   0  -6 1642.90   19.17
   2   0   6 1544.79   17.71
  -2   0  -6 1599.20   18.21
   2   0   6 1543.23   17.74
  -2   0  -6 1541.67   19.30
   2   0   7  330.76    9.17
  -2   0  -7  342.15   10.05
  -2   0  -7  338.85   10.54
   2   0   7  329.00    9.08
  -2   0  -7  338.14    9.65
  -2   0  -7  331.56    9.38
   2   0   7  338.60    9.26
  -2   0  -7  329.25    9.23
  -2   0  -7  325.31    9.19
  -2   0  -7  299.48    9.30
   2   0   7  338.59    9.44
   2   0   7  341.27    9.27
  -2   0  -7  331.79    9.19
   2   0   7  341.31    9.24
  -2   0  -7  332.29    9.33
   2   0   7  345.58    9.34
   2   0   8   42.88    2.37
  -2   0  -8   39.01    3.65
  -2   0  -8   39.93    3.55
  -2   0  -8   41.90    4.07
  -2   0  -8   42.53    3.70
   2   0   8   43.66    3.66
  -2   0  -8   41.78    3.61
  -2   0  -8   41.42    2.21
   2   0   8   38.99    3.55
   2   0   8   40.90    3.54
   2   0   8   41.61    3.52
  -2   0  -8   44.93    3.77
  -2   0  -8   41.95    2.34
   2   0   8   45.36    3.73
   2   0   8   41.67    2.35
   2   0   8   37.48    3.39
  -2   0  -8   36.73    3.63
   2   0   8   41.69    2.20
   2   0   8   43.16    2.29
   2   0   8   42.52    2.17
   2   0   8   40.05    2.26
   2   0   8   41.56    2.36
   2   0   9    2.14    0.63
   2   0   9    2.09    0.62
  -2   0  -9    2.40    0.67
   2   0   9    1.73    0.69
   2   0   9    1.46    0.53
   2   0   9    2.03    0.69
   2   0   9    3.01    0.77
   2   0   9    2.23    0.62
  -2   0  -9    3.00    0.81
   2   0  10    1.54    0.61
  -2   0 -10    1.42    0.53
   2   0  10    0.34    0.41
   2   0  10    0.74    0.54
   2   0  10    1.16    0.51
  -2   0 -10   -0.03    0.43
   2   0  10    0.24    0.50
   2   0  10    1.16    0.46
   2   0  10    0.43    0.38
  -2   0 -10    0.44    0.55
   2   0  10    1.24    0.57
  -2   0 -11   97.30    3.34
   2   0  11   95.35    2.84
   2   0  11  101.30    3.41
  -2   0 -11   99.15    3.06
   2   0  11   98.04    3.33
  -2   0 -11   95.53    3.03
   2   0  11   94.44    2.91
   2   0  11   94.97    2.97
  -2   0 -11  100.60    3.33
  -2   0 -11  100.06    3.37
   2   0  12   58.52    2.14
  -2   0 -12   53.91    2.01
  -2   0 -12   53.70    2.01
   2   0  12   55.25    2.12
  -2   0 -12   52.46    1.79
  -2   0 -12   50.81    2.02
   2   1 -12    3.04    0.51
  -2  -1  12    2.94    0.48
  -2  -1  12    3.22    0.52
  -2  -1  12    3.09    0.52
   2   1 -12    3.47    0.53
   2   1 -12    2.68    0.51
   2   1 -12    4.06    0.61
  -2  -1  12    2.48    0.39
   2   1 -11  270.12    5.13
   2   1 -11  250.18    4.97
   2   1 -11  247.60    4.34
   2   1 -11  262.19    4.91
  -2  -1  11  264.17    4.99
  -2  -1  11  262.69    4.87
   2   1 -11  257.60    4.95
  -2  -1  11  259.06    4.90
  -2  -1  11  259.01    4.49
   2   1 -10  292.43    6.09
  -2  -1  10  301.14    6.03
   2   1 -10  287.87    5.92
   2   1 -10  293.45    6.05
   2   1 -10  293.64    5.60
  -2  -1  10  286.67    5.88
   2   1 -10  287.82    6.04
  -2  -1  10  296.86    5.62
  -2  -1  10  289.50    5.84
   2   1  -9    0.53    0.52
  -2  -1   9    0.38    0.52
  -2  -1   9   -0.03    0.49
   2   1  -9   -0.09    0.51
   2   1  -9   -0.15    0.51
   2   1  -9    0.55    0.44
  -2  -1   9    1.17    0.58
   2   1  -9    0.92    0.52
  -2  -1   8    2.68    1.12
  -2  -1   8    2.71    1.08
  -2  -1   8    2.31    1.04
   2   1  -8    2.22    0.63
  -2  -1   8    2.52    1.09
   2   1  -8    1.20    1.03
   2   1  -8    2.00    0.60
   2   1  -8    2.00    0.70
  -2  -1   8    3.64    1.29
   2   1  -8    2.51    1.16
   2   1  -8    2.19    0.99
   2   1  -8    3.61    1.18
  -2  -1   8    1.77    0.61
  -2  -1   8    2.13    1.10
   2   1  -8    2.05    0.60
   2   1  -8    2.05    0.70
  -2  -1   8    1.83    0.96
  -2  -1   8    4.60    0.87
   2   1  -8    4.44    1.58
   2   1  -8    1.47    0.96
  -2  -1   8    0.51    0.61
   2   1  -8    2.34    1.01
  -2  -1   8    2.78    0.83
  -2  -1   8    2.43    0.65
   2   1  -8    2.40    0.68
   2   1  -7   30.65    3.19
   2   1  -7   28.62    3.34
  -2  -1   7   27.63    3.04
  -2  -1   7   29.60    3.25
  -2  -1   7   25.65    2.90
  -2  -1   7   26.43    2.95
  -2  -1   7   24.45    2.68
   2   1  -7   28.72    3.25
   2   1  -7   28.64    3.20
   2   1  -7   28.65    3.14
   2   1  -7   29.96    3.29
  -2  -1   7   23.21    2.78
  -2  -1   7   26.38    3.15
  -2  -1   7   27.25    2.97
   2   1  -6  469.53   11.06
  -2  -1   6  443.16   10.79
  -2  -1   6  442.41   10.80
  -2  -1   6  438.50   10.23
  -2  -1   6  452.35   10.94
   2   1  -6  452.01   11.65
  -2  -1   6  436.96   10.81
  -2  -1   6  444.19   10.79
   2   1  -6  453.25   11.35
  -2  -1   6  424.48   11.02
  -2  -1   6  448.93   10.85
  -2  -1   6  427.41   11.14
  -2  -1   6  441.95    9.17
   2   1  -6  441.57   11.80
   2   1  -6  461.45   11.26
   2   1  -6  443.78   11.09
   2   1  -6  441.85   11.09
  -2  -1   5  949.66   13.45
   2   1  -5  886.62   13.98
   2   1  -5  899.80   14.09
  -2  -1   5  902.29   13.81
  -2  -1   5  895.26   14.53
  -2  -1   5  910.28   13.74
   2   1  -5  890.38   14.95
  -2  -1   5  919.49   13.88
   2   1  -5  983.30   12.20
   2   1  -5  906.25   14.70
   2   1  -5  923.48   14.22
  -2  -1   5  912.03   13.87
   2   1  -5  920.25   13.73
   2   1  -5  885.88   14.21
  -2  -1   5  937.80   14.56
  -2  -1   5  900.83   13.78
  -2  -1   5  935.74   14.00
  -2  -1   5  927.48   12.47
   2   1  -5  977.99   14.39
  -2  -1   4  386.54    7.64
   2   1  -4  375.14    8.60
   2   1  -4  380.02    7.99
   2   1  -4  400.81    6.42
   2   1  -4  378.22    8.14
  -2  -1   4  381.71    7.90
  -2  -1   4  381.32    7.85
   2   1  -4  397.56    6.79
  -2  -1   4  392.91    8.56
  -2  -1   4  384.70    7.84
   2   1  -4  395.54    8.18
   2   1  -4  398.60    8.18
  -2  -1   4  377.25    7.82
   2   1  -4  378.96    8.44
  -2  -1   4  393.86    7.91
   2   1  -4  370.75    7.83
  -2  -1   4  391.98    7.95
  -2  -1   4  385.03    7.46
  -2  -1   4  391.50    8.31
   2   1  -4  382.65    7.96
   2   1  -3  454.88    7.57
  -2  -1   3  460.62    7.51
   2   1  -3  446.07    8.12
  -2  -1   3  453.29    7.45
   2   1  -3  457.93    7.57
  -2  -1   3  475.61    8.31
   2   1  -3  473.97    6.61
  -2  -1   3  468.70    7.49
   2   1  -3  464.62    8.07
  -2  -1   3  460.64    7.47
   2   1  -3  442.88    5.70
   2   1  -3  456.29    7.53
   2   1  -3  442.72    6.00
  -2  -1   3  453.82    7.38
  -2  -1   3  459.90    7.46
   2   1  -3  446.71    7.68
  -2  -1   3  462.86    7.91
   2   1  -3  450.92    7.63
   2   1  -3  460.66    4.73
  -2  -1   3  459.65    7.46
   2   1  -3  462.04    7.81
  -2  -1   3  433.14    7.26
  -2  -1   2  248.90    5.29
   2   1  -2  228.91    4.08
   2   1  -2  244.45    3.56
   2   1  -2  246.13    4.52
  -2  -1   2  250.81    4.61
   2   1  -2  235.06    4.96
  -2  -1   2  246.83    4.56
   2   1  -2  236.78    4.84
   2   1  -2  246.19    4.64
  -2  -1   2  247.60    5.00
  -2  -1   2  240.12    4.53
  -2  -1   2  242.30    5.01
  -2  -1   2  238.40    4.48
  -2  -1   2  249.71    4.68
   2   1  -2  244.57    4.68
  -2  -1   2  247.17    4.55
  -2  -1   2  245.68    4.59
   2   1  -2  244.49    4.76
   2   1  -2  243.29    4.64
   2   1  -2  249.80    4.98
   2   1  -1   97.02    2.67
   2   1  -1   88.50    2.34
  -2  -1   1   97.66    1.52
   2   1  -1   86.05    2.59
   2   1  -1   87.64    2.53
   2   1  -1   85.16    2.33
   2   1  -1   89.94    2.61
  -2  -1   1   87.12    2.15
   2   1  -1   86.41    2.19
   2   1  -1   86.42    2.20
  -2  -1   1   84.29    2.13
   2   1  -1   87.80    2.21
  -2  -1   1   89.45    2.18
  -2  -1   1   94.73    2.53
   2   1  -1   87.58    2.26
  -2  -1   1   87.08    2.17
  -2  -1   1   91.93    2.66
  -2  -1   1   93.63    2.83
  -2  -1   1   89.66    2.20
  -2  -1   1   85.17    2.15
   2   1   0 3111.56   12.46
  -2  -1   0 3289.72    8.05
  -2  -1   0 3192.76    8.00
   2   1   0 3193.70   15.39
   2   1   0 3195.74    8.58
   2   1   0 3244.31    8.49
   2   1   0 3162.99    8.13
   2   1   0 3148.28    8.02
  -2  -1   0 3197.67    7.98
  -2  -1   0 3253.10   14.40
   2   1   0 3238.27    8.35
  -2  -1   0 3194.14    7.98
  -2  -1   0 3402.91   13.71
  -2  -1   0 3240.68    8.00
  -2  -1  -2   25.22    0.87
   2   1   2   26.54    0.89
   2   1   2   25.91    0.88
   2   1   2   25.75    1.45
   2   1   2   27.22    1.63
   2   1   2   26.85    1.59
  -2  -1  -2   24.77    0.90
  -2  -1  -2   26.52    0.96
   2   1   2   26.07    0.90
  -2  -1  -2   26.56    0.89
   2   1   2   26.38    0.99
   2   1   2   26.50    0.90
  -2  -1  -2   24.79    0.88
   2   1   2   26.24    0.88
  -2  -1  -2   27.00    1.34
   2   1   3 1343.60   10.76
  -2  -1  -3 1380.50   10.53
   2   1   3 1407.19   12.27
   2   1   3 1359.30   11.91
  -2  -1  -3 1363.33   12.86
   2   1   3 1385.90    9.25
  -2  -1  -3 1361.77    9.96
  -2  -1  -3 1341.24    9.56
   2   1   3 1369.60    9.23
  -2  -1  -3 1313.99    9.11
   2   1   3 1375.77    9.28
   2   1   3 1349.29    9.17
  -2  -1  -3 1280.30    9.19
  -2  -1  -3 1314.08    9.12
   2   1   3 1349.86    9.20
   2   1   3 1351.99    9.24
  -2  -1  -3 1259.26    9.08
  -2  -1  -3 1410.38    7.59
  -2  -1  -4 4287.13   22.01
   2   1   4 4425.74   23.84
   2   1   4 4436.78   20.78
  -2  -1  -4 4336.01   21.59
   2   1   4 4317.65   20.61
  -2  -1  -4 4590.21   21.05
  -2  -1  -4 4446.44   20.92
  -2  -1  -4 4327.90   21.31
   2   1   4 4358.48   20.67
   2   1   4 4316.72   20.43
  -2  -1  -4 4506.76   21.25
  -2  -1  -4 4554.88   26.56
   2   1   4 4450.07   20.85
  -2  -1  -4 4224.30   26.13
  -2  -1  -4 4453.02   20.81
   2   1   4 4333.00   20.60
  -2  -1  -5  809.75    8.85
   2   1   5  850.13   11.45
   2   1   5  800.38   10.39
   2   1   5  791.15   10.33
   2   1   5  784.35   10.33
  -2  -1  -5  793.08   12.71
  -2  -1  -5  839.50   11.43
  -2  -1  -5  804.87   10.91
  -2  -1  -5  770.33   10.27
  -2  -1  -5  765.32   10.19
  -2  -1  -5  788.82   10.45
   2   1   5  810.25   10.44
  -2  -1  -5  792.80   10.24
   2   1   5  821.01   10.44
  -2  -1  -5  776.29   10.44
   2   1   5  784.31   10.27
  -2  -1  -5  800.15   12.38
   2   1   6   72.47    3.62
   2   1   6   71.42    3.60
   2   1   6   67.85    3.53
  -2  -1  -6   70.26    4.26
  -2  -1  -6   69.25    3.80
  -2  -1  -6   73.53    3.77
  -2  -1  -6   69.48    3.58
  -2  -1  -6   69.84    3.54
   2   1   6   70.15    3.57
  -2  -1  -6   72.45    3.48
   2   1   6   64.87    3.40
  -2  -1  -6   69.12    3.59
   2   1   6   63.72    3.41
  -2  -1  -6   63.20    3.91
   2   1   6   69.27    3.51
   2   1   7  504.73   10.29
   2   1   7  495.28   10.81
  -2  -1  -7  482.35   11.35
  -2  -1  -7  527.15   12.80
  -2  -1  -7  512.87   11.50
  -2  -1  -7  511.62   11.27
   2   1   7  509.58   10.79
  -2  -1  -7  511.19   10.84
  -2  -1  -7  508.70   10.82
   2   1   7  494.26   10.55
   2   1   7  501.08   10.64
   2   1   7  487.96   10.48
   2   1   7  500.47   10.65
   2   1   7  475.05   10.45
  -2  -1  -7  517.10   11.00
  -2  -1  -8  134.07    6.48
   2   1   8  122.97    5.86
   2   1   8  129.33    6.00
  -2  -1  -8  126.01    6.43
   2   1   8  123.09    5.86
  -2  -1  -8  130.37    6.12
  -2  -1  -8  125.25    6.24
   2   1   8  132.06    6.15
  -2  -1  -8  118.80    6.66
  -2  -1  -8  129.19    6.25
   2   1   8  133.80    6.09
  -2  -1  -8  139.31    6.38
  -2  -1  -8  130.12    6.56
   2   1   8  126.08    3.94
  -2  -1  -8  130.95    6.12
  -2  -1  -8  130.53    3.93
   2   1   8  135.65    6.12
   2   1   8  129.39    5.96
   2   1   8  125.58    3.87
   2   1   8  134.20    4.07
   2   1   8  126.74    3.94
   2   1   8  120.98    3.95
  -2  -1  -9 1598.75   14.14
  -2  -1  -9 1693.52   14.62
   2   1   9 1628.94   14.70
   2   1   9 1668.43   14.88
   2   1   9 1648.75   14.91
   2   1   9 1652.32   14.33
   2   1   9 1722.19   15.45
   2   1  10    1.90    0.62
  -2  -1 -10    1.82    0.62
   2   1  10    2.19    0.73
  -2  -1 -10    1.47    0.64
  -2  -1 -10    2.03    0.62
   2   1  10    2.23    0.73
   2   1  10    1.45    0.60
   2   1  10    3.71    0.83
  -2  -1 -11   81.76    2.91
  -2  -1 -11   85.01    3.09
   2   1  11   82.77    3.13
   2   1  11   83.73    3.05
   2   1  11   83.54    3.20
   2   1  11   80.39    2.77
   2   1  11   83.62    3.10
  -2  -1 -11   87.76    3.30
  -2  -1 -11   84.30    3.21
   2   1  11   82.14    3.20
  -2  -1 -12  145.81    3.18
  -2  -1 -12  149.62    3.59
   2   1  12  143.82    3.39
  -2  -1 -12  154.36    3.74
   2   1  12  165.17    3.87
  -2  -1 -12  157.13    3.53
   2   1  12  145.87    3.41
  -2  -1 -12  153.65    3.69
   2   1  12  151.62    3.69
  -2  -1 -13    5.98    0.51
  -2  -1 -13    5.08    0.52
   2   1  13    6.33    0.64
  -2  -1 -13    6.58    0.64
   2   1  13    6.91    0.67
  -2  -1 -13    6.57    0.64
   2   2 -12    3.40    0.47
  -2  -2  12    3.39    0.46
   2   2 -11    0.28    0.37
  -2  -2  11    0.51    0.43
   2   2 -11    0.20    0.42
   2   2 -11    0.45    0.36
   2   2 -11    0.37    0.45
  -2  -2  11    0.28    0.30
   2   2 -11    0.07    0.36
  -2  -2  11    0.17    0.38
  -2  -2  10   16.82    1.18
   2   2 -10   17.05    1.50
   2   2 -10   15.80    1.39
  -2  -2  10   16.94    1.38
  -2  -2  10   16.04    1.41
   2   2 -10   15.27    1.39
   2   2 -10   15.94    1.38
  -2  -2  10   16.33    1.33
  -2  -2  10   15.85    1.34
   2   2 -10   16.57    1.38
  -2  -2   9    8.09    1.00
   2   2  -9    8.75    1.18
  -2  -2   9    8.37    1.08
   2   2  -9    8.36    1.16
  -2  -2   9    6.56    1.02
   2   2  -9    8.74    1.19
   2   2  -9    9.02    1.16
  -2  -2   9    9.70    1.15
  -2  -2   9    5.92    0.97
   2   2  -9    8.67    1.12
   2   2  -8  940.04   11.37
   2   2  -8  948.25   11.53
  -2  -2   8  912.55   10.74
   2   2  -8  909.74   11.13
  -2  -2   8  962.41   10.94
  -2  -2   8  953.89   11.13
   2   2  -8  924.77   11.40
  -2  -2   8  944.26   10.80
   2   2  -8  876.92   10.85
  -2  -2   7    0.29    0.67
   2   2  -7    2.58    1.15
   2   2  -7   -0.33    0.91
   2   2  -7    2.90    0.73
  -2  -2   7    1.11    0.76
   2   2  -7   -0.82    0.68
   2   2  -7    0.58    0.43
  -2  -2   7    1.10    0.84
   2   2  -7    2.16    1.17
  -2  -2   7   -0.63    0.69
  -2  -2   7    1.14    0.47
   2   2  -7    1.90    0.96
  -2  -2   7    0.17    0.45
   2   2  -7    1.74    0.90
   2   2  -7    2.30    1.12
   2   2  -7    1.23    0.50
  -2  -2   7    1.34    0.78
  -2  -2   7   -0.42    0.68
   2   2  -7    2.97    1.13
   2   2  -7    0.39    0.43
  -2  -2   7   -1.52    1.06
  -2  -2   7    0.40    0.38
  -2  -2   7   -0.12    0.59
  -2  -2   7    4.37    1.29
  -2  -2   7    0.42    0.54
   2   2  -7    0.31    0.44
   2   2  -6    5.96    1.34
   2   2  -6    6.29    1.70
  -2  -2   6    4.11    1.25
  -2  -2   6    7.10    1.57
  -2  -2   6    5.50    1.44
  -2  -2   6    6.19    1.56
   2   2  -6    8.45    1.71
  -2  -2   6    7.93    1.64
  -2  -2   6    6.52    1.49
   2   2  -6    9.68    1.84
   2   2  -6    5.74    1.54
   2   2  -6    5.02    1.55
  -2  -2   6    6.27    1.39
  -2  -2   6    4.78    1.22
   2   2  -6    7.58    1.76
   2   2  -6    8.44    1.69
  -2  -2   6    6.53    1.47
  -2  -2   5  104.86    5.07
   2   2  -5   97.03    5.29
   2   2  -5  102.53    5.08
  -2  -2   5  100.35    4.85
  -2  -2   5   93.60    4.91
  -2  -2   5   99.10    4.85
   2   2  -5   99.61    5.10
   2   2  -5  104.31    5.10
  -2  -2   5  104.14    5.06
  -2  -2   5  100.81    4.91
   2   2  -5   93.46    4.81
   2   2  -5  103.60    5.12
  -2  -2   5  102.16    4.92
  -2  -2   5   96.77    4.11
  -2  -2   5   98.69    5.15
   2   2  -5  103.51    5.29
  -2  -2   5  100.11    4.88
   2   2  -5   98.03    4.83
   2   2  -4  230.60    6.89
  -2  -2   4  235.62    6.82
   2   2  -4  221.14    6.59
  -2  -2   4  224.67    6.48
   2   2  -4  223.03    7.12
  -2  -2   4  233.16    7.00
  -2  -2   4  225.89    6.51
   2   2  -4  229.89    6.76
  -2  -2   4  228.44    5.91
  -2  -2   4  235.17    6.62
   2   2  -4  219.06    6.55
   2   2  -4  222.97    6.65
  -2  -2   4  234.58    6.64
   2   2  -4  236.90    7.19
  -2  -2   4  218.54    6.55
   2   2  -4  235.24    6.70
  -2  -2   4  232.91    6.57
  -2  -2   3  914.25   12.50
   2   2  -3  935.54    8.01
   2   2  -3  918.88   12.33
  -2  -2   3  912.40   11.39
   2   2  -3  873.27   12.29
  -2  -2   3  901.61   11.37
   2   2  -3  909.59   11.62
   2   2  -3  909.76   11.58
  -2  -2   3  919.56   11.45
  -2  -2   3  905.48   11.63
  -2  -2   3  902.00   11.31
   2   2  -3  907.39   12.13
   2   2  -3  914.94   11.75
  -2  -2   3  924.36   11.48
  -2  -2   3  942.52   12.81
   2   2  -3  922.81   11.97
  -2  -2   3  918.25   12.14
   2   2  -3  863.75   11.30
  -2  -2   2 3940.86   20.51
   2   2  -2 3911.45   16.90
   2   2  -2 3739.59   21.90
   2   2  -2 3830.12   21.69
  -2  -2   2 4027.77   23.71
   2   2  -2 3865.68   21.42
  -2  -2   2 3607.93   11.36
  -2  -2   2 3894.30   20.56
   2   2  -2 3780.25   20.51
  -2  -2   2 3795.42   20.70
  -2  -2   2 3893.45   20.44
  -2  -2   2 3866.58   20.38
   2   2  -2 3936.24   22.09
   2   2  -2 3806.80   20.96
  -2  -2   2 3819.88   20.32
  -2  -2   2 4105.72   22.94
   2   2  -2 3755.12   20.66
  -2  -2   2 4046.35   23.72
   2   2  -2 3982.81   21.27
  -2  -2   1   17.47    0.94
  -2  -2   1   18.17    1.20
   2   2  -1   16.16    1.13
   2   2  -1   18.60    1.27
  -2  -2   1   17.78    1.19
   2   2  -1   16.39    1.18
   2   2  -1   16.11    1.17
   2   2  -1   17.02    1.19
  -2  -2   1   16.28    1.17
   2   2  -1   16.23    1.17
   2   2  -1   17.15    1.33
  -2  -2   1   17.74    1.47
  -2  -2   1   18.97    1.47
  -2  -2   1   18.42    1.21
  -2  -2   1   18.68    1.52
  -2  -2   1   18.75    1.22
  -2  -2   1   19.26    1.23
   2   2  -1   17.97    1.30
   2   2  -1   17.20    1.36
   2   2  -1   19.79    1.33
   2   2  -1   17.85    1.26
  -2  -2   0 2825.82   12.06
   2   2   0 2881.68   14.66
  -2  -2   0 2859.52   13.75
  -2  -2   0 2736.51   12.08
   2   2   0 2749.03   12.69
   2   2   0 2767.46   12.26
   2   2   0 2863.59   12.39
  -2  -2   0 2797.75   11.98
   2   2   0 2823.62   12.11
   2   2   0 2786.98   12.55
  -2  -2   0 2933.26   12.56
  -2  -2   0 2894.70   12.31
  -2  -2   0 2964.35   16.71
   2   2   0 2831.53   12.08
  -2  -2   0 2773.33   12.06
  -2  -2   0 2964.65   16.71
  -2  -2   0 2890.79   10.85
   2   2   0 2954.28   13.51
   2   2   0 2893.78   12.57
   2   2   1  225.35    3.48
   2   2   1  236.25    2.91
   2   2   1  230.73    4.33
  -2  -2  -1  227.70    4.39
   2   2   1  235.64    2.93
   2   2   1  235.74    4.66
  -2  -2  -1  233.55    3.35
   2   2   1  231.07    2.92
  -2  -2  -1  226.37    3.03
  -2  -2  -1  233.70    2.95
   2   2   1  237.61    2.48
  -2  -2  -1  227.10    2.85
  -2  -2  -1  219.81    2.84
  -2  -2  -1  235.78    2.92
   2   2   1  226.70    2.89
  -2  -2  -1  239.44    4.06
  -2  -2  -1  228.00    2.83
   2   2   1  227.76    2.87
   2   2   1  232.69    3.00
  -2  -2  -2  171.45    4.27
   2   2   2  162.47    3.94
   2   2   2  167.44    4.13
   2   2   2  160.57    2.62
   2   2   2  159.14    2.61
   2   2   2  157.11    2.61
  -2  -2  -2  162.40    2.74
  -2  -2  -2  157.81    2.61
  -2  -2  -2  161.76    2.61
   2   2   2  162.15    2.62
  -2  -2  -2  155.77    2.58
   2   2   2  167.62    3.16
  -2  -2  -2  157.25    2.75
  -2  -2  -2  158.68    2.59
   2   2   2  165.75    2.67
   2   2   2  160.78    2.62
  -2  -2  -2  165.02    3.98
  -2  -2  -2  171.03    3.73
   2   2   3  195.18    3.55
   2   2   3  191.82    3.51
   2   2   3  201.13    4.60
   2   2   3  207.16    4.62
  -2  -2  -3  200.43    3.59
  -2  -2  -3  204.00    4.86
  -2  -2  -3  189.45    3.88
  -2  -2  -3  198.92    3.69
  -2  -2  -3  203.40    3.62
  -2  -2  -3  194.73    3.51
   2   2   3  205.13    4.10
  -2  -2  -3  208.73    3.12
   2   2   3  203.73    3.63
  -2  -2  -3  190.48    3.73
   2   2   3  201.32    3.63
   2   2   3  199.71    3.58
  -2  -2  -3  211.18    5.19
   2   2   3  195.60    3.54
   2   2   4   34.77    1.81
   2   2   4   32.69    1.96
   2   2   4   33.86    1.79
  -2  -2  -4   35.06    2.34
  -2  -2  -4   33.94    1.98
  -2  -2  -4   35.23    1.84
  -2  -2  -4   35.77    1.85
  -2  -2  -4   33.15    1.77
  -2  -2  -4   35.04    1.50
   2   2   4   35.50    1.83
   2   2   4   35.46    1.83
  -2  -2  -4   34.38    1.87
   2   2   4   35.43    1.85
  -2  -2  -4   32.75    2.33
   2   2   4   33.96    1.94
   2   2   5 1469.86   13.75
  -2  -2  -5 1342.07   16.06
   2   2   5 1432.19   13.92
   2   2   5 1483.33   13.57
   2   2   5 1441.58   13.58
  -2  -2  -5 1520.06   17.24
  -2  -2  -5 1423.82   14.54
  -2  -2  -5 1507.23   14.27
  -2  -2  -5 1486.47   13.84
   2   2   5 1463.75   14.51
  -2  -2  -5 1467.08   13.82
   2   2   5 1440.84   13.51
  -2  -2  -5 1488.54   11.18
   2   2   5 1477.98   13.65
   2   2   5 1519.72   13.88
  -2  -2  -5 1450.28   13.77
   2   2   5 1462.10   13.64
  -2  -2  -5 1385.08   16.60
  -2  -2  -5 1371.46   14.53
   2   2   6   20.94    1.93
  -2  -2  -6   18.50    2.15
   2   2   6   17.56    1.72
   2   2   6   21.82    1.95
   2   2   6   22.35    1.98
  -2  -2  -6   18.17    2.23
  -2  -2  -6   18.92    2.00
  -2  -2  -6   21.67    2.06
   2   2   6   21.19    1.97
  -2  -2  -6   21.01    1.94
  -2  -2  -6   21.36    1.91
   2   2   6   21.17    2.00
  -2  -2  -6   22.34    1.99
   2   2   6   21.12    1.92
   2   2   6   22.68    2.01
  -2  -2  -6   21.53    1.99
  -2  -2  -6   20.68    2.32
   2   2   7  770.69   12.98
  -2  -2  -7  749.94   12.89
   2   2   7  750.76   12.72
   2   2   7  778.52   12.93
  -2  -2  -7  748.14   14.19
   2   2   7  756.16   12.71
  -2  -2  -7  774.17   13.74
   2   2   7  742.49   13.04
  -2  -2  -7  732.87   12.71
  -2  -2  -7  769.90   13.05
   2   2   7  777.17   12.95
  -2  -2  -7  767.41   13.22
  -2  -2  -7  751.36   14.79
  -2  -2  -7  787.50   14.13
   2   2   7  778.43   12.96
  -2  -2  -7  747.92   15.16
  -2  -2  -8  170.93    6.91
  -2  -2  -8  164.10    7.15
   2   2   8  165.63    6.68
  -2  -2  -8  161.35    6.61
   2   2   8  168.31    6.71
  -2  -2  -8  170.50    7.32
  -2  -2  -8  164.48    7.82
  -2  -2  -8  171.91    7.19
   2   2   8  158.96    6.51
  -2  -2  -8  165.45    6.74
   2   2   8  173.10    6.81
   2   2   8  169.78    6.71
  -2  -2  -8  174.23    6.99
   2   2   8  164.61    6.61
  -2  -2  -8  173.25    7.69
   2   2   8  171.10    6.89
  -2  -2  -9  182.49    4.87
   2   2   9  185.63    5.02
  -2  -2  -9  176.04    4.86
  -2  -2  -9  177.97    8.75
   2   2   9  177.21    4.74
   2   2   9  172.32    7.39
   2   2   9  178.14    4.83
  -2  -2  -9  175.61    8.20
  -2  -2  -9  178.57    4.61
   2   2   9  183.28    4.88
   2   2   9  173.57    4.73
   2   2   9  184.44    5.06
   2   2  10  195.06    5.08
  -2  -2 -10  191.82    5.05
  -2  -2 -10  196.32    5.08
   2   2  10  197.29    5.04
   2   2  10  195.55    4.89
  -2  -2 -10  193.82    4.79
   2   2  10  195.45    4.98
   2   2  10  204.56    5.32
   2   2  10  190.17    5.24
   2   2  11   -0.08    0.51
  -2  -2 -11    0.10    0.39
  -2  -2 -11    0.45    0.48
   2   2  11   -0.61    0.53
  -2  -2 -11   -0.08    0.50
  -2  -2 -11    0.09    0.36
   2   2  11   -0.26    0.52
   2   2  11    0.00    0.44
  -2  -2 -11    0.21    0.52
   2   2  11    0.49    0.54
  -2  -2 -12   79.71    2.66
  -2  -2 -12   77.56    2.69
  -2  -2 -12   80.79    2.86
   2   2  12   74.38    2.63
   2   2  12   74.57    2.68
  -2  -2 -12   78.97    2.37
   2   2  12   79.96    2.76
   2   2  12   75.34    2.28
   2   2  12   80.63    2.80
  -2  -2 -12   79.95    2.76
   2   2  12   79.23    2.84
   2   2  13   15.45    0.97
  -2  -2 -13   16.07    0.91
  -2  -2 -13   16.88    0.99
   2   2  13   17.96    1.03
  -2  -2 -13   17.31    1.08
   2   2  13   17.54    1.04
  -2  -2 -13   15.24    0.88
   2   2  13   15.83    0.97
  -2  -2 -13   13.34    0.93
   2   3 -11   49.79    1.47
   2   3 -11   58.15    1.89
   2   3 -11   56.06    1.73
  -2  -3  11   62.43    1.91
   2   3 -11   61.62    1.93
   2   3 -11   45.01    1.34
  -2  -3  11   59.39    1.81
  -2  -3  10    4.31    0.63
  -2  -3  10    3.84    0.74
   2   3 -10    3.79    0.67
  -2  -3  10    3.13    0.56
   2   3 -10    3.49    0.74
   2   3 -10    3.43    0.65
   2   3 -10    3.62    0.74
   2   3 -10    3.43    0.71
  -2  -3  10    3.79    0.73
  -2  -3   9   87.12    2.99
   2   3  -9   82.13    3.09
   2   3  -9   83.44    3.28
  -2  -3   9   83.68    2.90
  -2  -3   9   80.81    3.08
  -2  -3   9   88.13    3.25
   2   3  -9   83.64    3.07
   2   3  -9   85.40    3.34
   2   3  -9   79.98    3.17
  -2  -3   8  213.16    5.03
   2   3  -8  206.50    5.21
  -2  -3   8  213.05    4.63
  -2  -3   8  218.16    4.94
   2   3  -8  213.94    5.51
  -2  -3   8  219.94    5.33
   2   3  -8  215.81    5.26
  -2  -3   8  229.67    5.46
   2   3  -8  206.21    5.45
   2   3  -8  207.87    4.59
   2   3  -8  210.34    5.41
  -2  -3   7   50.01    2.48
   2   3  -7   51.59    2.64
  -2  -3   7   46.04    4.29
  -2  -3   7   49.82    2.39
  -2  -3   7   58.45    2.59
   2   3  -7   49.43    2.47
   2   3  -7   52.24    2.69
  -2  -3   7   52.76    2.63
   2   3  -7   54.63    4.56
   2   3  -7   50.47    2.60
   2   3  -7   50.39    2.68
  -2  -3   7   47.70    4.26
  -2  -3   7   50.98    2.57
   2   3  -7   49.41    2.68
  -2  -3   6  176.15    7.62
  -2  -3   6  177.86    7.64
  -2  -3   6  172.01    7.71
   2   3  -6  168.14    4.58
   2   3  -6  174.97    8.30
   2   3  -6  174.28    4.72
   2   3  -6  180.17    7.88
   2   3  -6  182.91    8.18
   2   3  -6  184.61    8.05
   2   3  -6  183.99    7.96
  -2  -3   6  174.95    4.48
  -2  -3   6  180.43    7.67
  -2  -3   6  177.21    7.79
  -2  -3   6  177.34    7.61
  -2  -3   6  175.81    7.78
   2   3  -6  170.15    7.59
   2   3  -6  174.98    4.77
   2   3  -6  176.15    7.76
  -2  -3   6  179.05    7.69
   2   3  -6  166.41    4.47
  -2  -3   6  170.24    8.00
  -2  -3   6  171.47    4.45
   2   3  -6  173.78    4.70
   2   3  -6  171.74    7.54
  -2  -3   5  255.96    8.43
  -2  -3   5  255.18    8.74
  -2  -3   5  254.91    8.66
   2   3  -5  256.50    9.21
  -2  -3   5  265.85    8.58
  -2  -3   5  254.65    8.54
   2   3  -5  252.01    8.55
  -2  -3   5  247.51    8.29
  -2  -3   5  255.86    8.39
   2   3  -5  248.49    8.51
   2   3  -5  256.98    8.71
  -2  -3   5  252.84    8.39
  -2  -3   5  245.09    8.84
   2   3  -5  260.70    8.68
   2   3  -5  261.12    8.69
   2   3  -5  250.81    8.33
   2   3  -5  258.98    8.98
  -2  -3   4  344.68    9.20
  -2  -3   4  357.41    7.77
  -2  -3   4  352.46    9.63
  -2  -3   4  357.90    8.98
   2   3  -4  357.25    9.47
   2   3  -4  354.99    9.73
   2   3  -4  367.37    9.36
  -2  -3   4  354.31    9.12
  -2  -3   4  353.80    8.93
  -2  -3   4  371.64    9.14
   2   3  -4  352.88    9.10
   2   3  -4  335.25    8.94
   2   3  -4  356.39    9.13
  -2  -3   4  358.86    9.00
   2   3  -4  354.84    9.13
  -2  -3   4  357.98    8.98
   2   3  -4  340.88    8.78
  -2  -3   4  331.42    9.25
  -2  -3   3  480.47    9.35
   2   3  -3  475.22    9.44
   2   3  -3  472.07   10.08
  -2  -3   3  478.99    9.31
  -2  -3   3  477.45    9.49
  -2  -3   3  473.78    9.29
   2   3  -3  491.30    9.90
  -2  -3   3  489.87    9.39
   2   3  -3  490.30    9.58
  -2  -3   3  480.77    9.37
   2   3  -3  468.23    9.59
  -2  -3   3  472.50   10.25
   2   3  -3  486.49    9.57
   2   3  -3  482.25    9.61
  -2  -3   3  470.98   10.07
  -2  -3   3  465.94    9.80
   2   3  -2  628.33    9.98
  -2  -3   2  619.61    9.48
   2   3  -2  604.24   10.09
  -2  -3   2  638.50    7.62
   2   3  -2  617.41    9.64
  -2  -3   2  615.66    9.49
   2   3  -2  604.05    9.51
   2   3  -2  623.10    9.67
  -2  -3   2  607.74    9.55
  -2  -3   2  627.84    9.56
   2   3  -2  607.48    9.78
   2   3  -2  610.78    9.53
  -2  -3   2  630.81    9.63
  -2  -3   2  621.06   10.75
  -2  -3   2  589.06   10.13
  -2  -3   2  599.64   10.32
  -2  -3   2  621.84    9.49
   2   3  -2  640.52    9.99
  -2  -3   1  313.08    6.00
   2   3  -1  315.06    6.15
   2   3  -1  308.88    6.12
  -2  -3   1  317.06    5.50
  -2  -3   1  313.11    6.05
  -2  -3   1  312.88    6.02
   2   3  -1  312.60    6.10
  -2  -3   1  308.22    6.77
   2   3  -1  297.95    6.05
  -2  -3   1  316.97    6.11
  -2  -3   1  323.23    6.99
  -2  -3   1  311.22    7.01
   2   3  -1  313.25    6.27
   2   3  -1  312.97    6.12
   2   3  -1  335.24    6.54
   2   3  -1  307.66    6.41
  -2  -3   1  317.53    6.17
   2   3  -1  317.52    6.45
  -2  -3   1  325.89    6.39
  -2  -3   0 8652.39   34.35
  -2  -3   0 8440.90   29.86
   2   3   0 8276.39   29.08
   2   3   0 8229.59   29.56
   2   3   0 8302.48   28.69
   2   3   0 8254.39   28.30
  -2  -3   0 8516.95   28.22
   2   3   0 8279.47   27.99
  -2  -3   0 8346.59   29.30
  -2  -3   0 8329.22   28.48
  -2  -3   0 8477.70   28.25
  -2  -3   0 8487.70   28.10
   2   3   0 8314.64   27.94
   2   3   0 8453.68   27.48
  -2  -3   0 8417.43   28.15
  -2  -3   0 8319.24   33.90
  -2  -3   0 8779.31   21.11
   2   3   0 8708.78   29.99
   2   3   0 8496.02   27.73
  -2  -3  -1 1928.03   14.97
   2   3   1 1879.10   15.54
  -2  -3  -1 1781.14   12.47
   2   3   1 1806.15   12.41
   2   3   1 1808.67   12.30
   2   3   1 1827.83   12.26
  -2  -3  -1 1845.08   12.11
  -2  -3  -1 1850.99   13.12
  -2  -3  -1 1805.02   12.33
  -2  -3  -1 1845.69   12.14
   2   3   1 1850.07   12.27
  -2  -3  -1 1833.36   12.23
   2   3   1 1852.96   13.35
  -2  -3  -1 1923.20   12.60
   2   3   1 1895.19   10.77
   2   3   1 1803.34   12.18
   2   3   1 1781.62   12.76
  -2  -3  -1 1845.85   15.50
  -2  -3  -1 1954.83   10.50
  -2  -3  -2  753.78    8.16
   2   3   2  739.73    9.68
  -2  -3  -2  777.12   10.15
   2   3   2  751.79    7.82
   2   3   2  767.44    7.86
  -2  -3  -2  795.22    8.49
  -2  -3  -2  773.61    7.74
   2   3   2  777.00    7.89
  -2  -3  -2  743.69    7.87
   2   3   2  777.06    8.06
  -2  -3  -2  777.39    7.78
   2   3   2  749.17    8.52
  -2  -3  -2  763.31    7.84
  -2  -3  -2  767.10    9.26
   2   3   2  737.43    4.88
   2   3   2  752.24    7.87
  -2  -3  -3  296.75    5.59
  -2  -3  -3  301.29    6.84
   2   3   3  296.00    5.18
  -2  -3  -3  297.49    6.51
   2   3   3  307.81    5.31
   2   3   3  304.32    5.31
   2   3   3  298.59    5.26
  -2  -3  -3  318.85    6.29
   2   3   3  312.88    6.28
  -2  -3  -3  299.77    5.17
  -2  -3  -3  297.10    5.38
  -2  -3  -3  299.86    5.26
  -2  -3  -3  297.69    5.20
   2   3   3  313.98    5.34
  -2  -3  -3  313.56    5.29
   2   3   3  305.35    5.86
   2   3   3  329.54    6.11
   2   3   3  304.69    5.39
  -2  -3  -4   49.04    3.00
   2   3   4   48.88    2.52
   2   3   4   46.17    2.27
   2   3   4   44.85    2.25
   2   3   4   44.75    2.25
   2   3   4   47.61    2.40
  -2  -3  -4   44.75    2.74
  -2  -3  -4   40.29    2.41
  -2  -3  -4   45.03    2.24
  -2  -3  -4   45.14    2.25
   2   3   4   47.16    2.54
   2   3   4   44.13    2.22
  -2  -3  -4   45.57    2.28
  -2  -3  -4   43.29    2.33
   2   3   4   44.11    2.24
  -2  -3  -4   42.14    2.77
   2   3   4   44.70    2.27
  -2  -3  -4   44.05    2.29
  -2  -3  -5  213.49    5.57
   2   3   5  203.61    5.77
  -2  -3  -5  201.32    6.50
   2   3   5  207.62    5.22
   2   3   5  206.01    5.36
   2   3   5  208.46    5.40
   2   3   5  200.88    5.06
   2   3   5  207.18    5.41
  -2  -3  -5  208.91    5.48
  -2  -3  -5  214.58    6.05
  -2  -3  -5  216.03    5.53
  -2  -3  -5  209.45    5.42
   2   3   5  209.91    5.41
   2   3   5  216.78    5.52
  -2  -3  -5  210.77    5.70
   2   3   5  215.88    5.52
  -2  -3  -5  194.15    6.50
  -2  -3  -5  209.09    6.57
   2   3   6  583.95   10.83
  -2  -3  -6  604.54   12.53
  -2  -3  -6  592.77   12.10
   2   3   6  581.99   10.08
   2   3   6  589.61   10.26
  -2  -3  -6  591.68   10.39
  -2  -3  -6  593.14   10.27
  -2  -3  -6  590.75   10.25
   2   3   6  576.04   10.09
   2   3   6  606.55   10.34
  -2  -3  -6  583.62   10.52
   2   3   6  577.40   10.09
  -2  -3  -6  584.74   12.37
  -2  -3  -6  581.64   11.01
   2   3   7  146.75    5.73
  -2  -3  -7  149.34    6.87
   2   3   7  147.10    5.67
  -2  -3  -7  146.78    6.47
  -2  -3  -7  143.27    6.14
  -2  -3  -7  152.73    6.22
   2   3   7  148.34    5.69
  -2  -3  -7  140.82    5.66
  -2  -3  -7  137.59    5.57
   2   3   7  140.14    5.81
   2   3   7  149.49    5.71
   2   3   7  152.38    5.77
  -2  -3  -7  144.65    5.84
   2   3   7  140.64    5.56
  -2  -3  -7  133.46    6.49
  -2  -3  -7  147.01    5.75
   2   3   8 1434.47   19.41
   2   3   8 1418.24   20.20
  -2  -3  -8 1393.90   21.34
   2   3   8 1451.96   19.53
   2   3   8 1432.11   19.38
  -2  -3  -8 1485.12   21.00
  -2  -3  -8 1428.89   19.64
  -2  -3  -8 1450.92   19.69
  -2  -3  -8 1414.69   19.47
  -2  -3  -8 1461.53   20.17
   2   3   8 1428.04   19.32
  -2  -3  -8 1505.71   23.14
  -2  -3  -8 1434.82   23.27
  -2  -3  -8 1446.71   21.17
   2   3   8 1400.67   13.33
   2   3   8 1439.46   19.38
   2   3   8 1458.04   19.60
  -2  -3  -9  180.55    8.86
   2   3   9  179.45    4.95
   2   3   9  178.35    4.58
   2   3   9  176.75    7.60
  -2  -3  -9  190.94    4.88
  -2  -3  -9  183.57    8.60
   2   3   9  179.45    4.68
   2   3   9  190.45    5.13
   2   3   9  183.69    4.95
   2   3   9  181.66    4.98
   2   3   9  191.36    5.15
  -2  -3 -10    7.09    1.12
  -2  -3 -10    9.32    1.19
   2   3  10    7.79    1.05
   2   3  10    9.16    1.14
  -2  -3 -10    8.91    1.10
   2   3  10    7.67    1.04
   2   3  10    7.31    1.06
   2   3  10    8.70    1.20
   2   3  10    7.26    1.15
   2   3  11    2.98    0.81
  -2  -3 -11    2.89    0.71
  -2  -3 -11    2.98    0.77
  -2  -3 -11    2.59    0.70
   2   3  11    2.26    0.66
   2   3  11    3.53    0.77
   2   3  11    3.24    0.72
   2   3  11    4.29    0.79
   2   3  11    1.81    0.68
   2   3  12    4.93    0.85
  -2  -3 -12    5.77    0.76
   2   3  12    4.02    0.67
  -2  -3 -12    4.11    0.75
  -2  -3 -12    5.30    0.82
   2   3  12    5.15    0.86
  -2  -3 -12    5.28    0.87
  -2  -3 -12    5.50    0.82
   2   3  12    4.64    0.72
   2   3  12    5.31    0.71
   2   3  12    4.95    0.86
  -2  -3 -13  103.52    2.48
  -2  -3 -13  104.52    2.53
   2   3  13   93.00    2.10
  -2  -3 -13  103.27    2.61
  -2  -3 -13   91.60    1.99
   2   3  13   99.92    2.28
   2   3  13  105.12    2.63
   2   3  13   97.18    2.51
  -2  -3 -13   92.12    2.21
   2   3  13  103.58    2.65
  -2  -4  10   79.17    1.98
  -2  -4  10   90.74    2.44
   2   4 -10   87.50    2.49
   2   4 -10   87.08    2.49
  -2  -4  10   84.55    2.37
   2   4 -10   84.73    2.41
  -2  -4   9    5.10    0.76
   2   4  -9    4.47    0.66
   2   4  -9    4.74    0.84
   2   4  -9    4.88    0.87
  -2  -4   9    4.46    0.77
   2   4  -9    4.99    0.88
  -2  -4   9    4.46    0.65
   2   4  -9    4.74    0.71
  -2  -4   9    4.38    0.76
  -2  -4   8    8.27    1.06
   2   4  -8    5.69    0.85
   2   4  -8    9.14    1.07
  -2  -4   8    6.61    0.87
  -2  -4   8    6.78    0.98
   2   4  -8    6.75    1.09
   2   4  -8    6.75    0.94
   2   4  -8    6.98    1.08
  -2  -4   8    8.84    1.15
   2   4  -8    8.16    1.14
  -2  -4   7   44.28    2.39
   2   4  -7   38.35    2.19
   2   4  -7   43.71    2.55
  -2  -4   7   41.90    2.21
   2   4  -7   39.53    2.27
  -2  -4   7   40.16    2.28
   2   4  -7   40.04    2.44
   2   4  -7   38.89    2.23
  -2  -4   7   37.20    2.26
   2   4  -7   37.42    1.96
   2   4  -7   36.91    2.34
  -2  -4   6  340.18    6.50
  -2  -4   6  313.07   11.23
   2   4  -6  334.85    6.40
  -2  -4   6  315.07    6.16
  -2  -4   6  338.23    6.39
   2   4  -6  331.58    6.78
  -2  -4   6  314.37   10.70
   2   4  -6  328.87    6.81
   2   4  -6  327.52   11.20
   2   4  -6  325.05    6.40
  -2  -4   6  323.14   11.53
   2   4  -6  324.20    6.52
  -2  -4   6  333.89    6.43
   2   4  -6  330.58    5.88
   2   4  -6  334.51    6.83
   2   4  -6  329.42   10.97
  -2  -4   5    2.14    1.07
  -2  -4   5    0.85    0.49
   2   4  -5    0.62    0.52
   2   4  -5    2.07    0.98
  -2  -4   5    3.04    1.00
  -2  -4   5    0.90    0.72
   2   4  -5    1.23    0.53
  -2  -4   5    1.38    0.81
   2   4  -5    3.27    0.76
   2   4  -5    1.83    0.91
  -2  -4   5   -1.52    0.94
  -2  -4   5    4.11    1.23
  -2  -4   5    1.27    0.67
   2   4  -5    1.39    0.57
   2   4  -5    1.25    0.72
   2   4  -5   -2.55    1.12
  -2  -4   5    2.15    1.08
   2   4  -5    3.24    0.68
   2   4  -5    0.46    0.74
  -2  -4   5    0.41    0.86
   2   4  -5    0.36    0.59
   2   4  -5    1.69    0.97
  -2  -4   5    1.61    0.51
  -2  -4   5    1.93    0.63
   2   4  -5    1.20    0.44
   2   4  -5    2.95    0.72
  -2  -4   4  594.07   13.74
   2   4  -4  629.75   13.78
  -2  -4   4  604.93   13.27
   2   4  -4  620.61   14.15
   2   4  -4  610.74   13.32
  -2  -4   4  611.43   13.05
  -2  -4   4  614.74   13.10
   2   4  -4  631.20   13.54
  -2  -4   4  617.26   13.56
  -2  -4   4  610.72   13.24
  -2  -4   4  628.37   13.20
  -2  -4   4  613.93   13.06
   2   4  -4  593.06   13.14
   2   4  -4  630.36   13.43
  -2  -4   4  606.87   13.99
   2   4  -4  556.07   12.40
   2   4  -4  620.20   13.98
   2   4  -3  494.94   11.60
   2   4  -3  516.50   11.37
   2   4  -3  514.39   11.72
   2   4  -3  509.42   11.15
   2   4  -3  521.61   11.29
  -2  -4   3  513.69   11.37
  -2  -4   3  501.77   11.72
  -2  -4   3  508.68   11.13
  -2  -4   3  519.28   11.02
  -2  -4   3  514.12   10.96
   2   4  -3  498.12   11.04
   2   4  -3  511.11   11.10
  -2  -4   3  523.64   11.12
  -2  -4   3  496.83   11.82
  -2  -4   3  496.94   11.21
  -2  -4   3  515.94   11.06
   2   4  -2  169.24    6.19
   2   4  -2  172.62    5.97
   2   4  -2  163.08    5.70
   2   4  -2  171.04    6.12
   2   4  -2  167.06    5.94
   2   4  -2  172.86    5.96
  -2  -4   2  166.57    5.75
  -2  -4   2  177.27    6.16
  -2  -4   2  173.02    5.93
  -2  -4   2  171.25    5.82
  -2  -4   2  174.23    5.86
   2   4  -2  170.69    5.88
  -2  -4   2  173.05    5.86
  -2  -4   2  168.22    6.40
  -2  -4   2  161.07    6.01
   2   4  -2  167.75    5.78
  -2  -4   2  178.10    6.53
   2   4  -2  174.30    6.03
   2   4  -1  116.92    4.29
  -2  -4   1  116.90    4.62
   2   4  -1  114.47    4.64
  -2  -4   1  115.11    4.20
   2   4  -1  117.94    4.62
   2   4  -1  120.82    4.59
   2   4  -1  112.82    4.41
  -2  -4   1  112.57    4.33
   2   4  -1  116.82    4.49
  -2  -4   1  117.65    4.44
   2   4  -1  114.63    4.42
  -2  -4   1  114.90    4.75
  -2  -4   1  114.69    4.36
  -2  -4   1  113.93    4.38
  -2  -4   1  110.46    4.84
  -2  -4   1  116.73    4.49
  -2  -4   1  113.25    4.85
   2   4  -1  118.57    4.37
   2   4  -1  115.99    4.56
  -2  -4   0   17.80    1.66
  -2  -4   0   18.84    1.77
   2   4   0   16.54    1.67
  -2  -4   0   16.36    1.68
  -2  -4   0   17.69    1.67
   2   4   0   16.69    1.72
   2   4   0   17.57    1.68
   2   4   0   17.77    1.67
  -2  -4   0   17.66    1.70
  -2  -4   0   19.15    2.01
  -2  -4   0   17.78    1.67
   2   4   0   18.17    1.69
  -2  -4   0   15.04    1.76
   2   4   0   17.47    1.70
   2   4   0   15.73    1.47
  -2  -4   0   18.03    1.68
   2   4   0   16.23    1.45
   2   4   0   18.51    1.72
  -2  -4  -1  483.32    9.29
  -2  -4  -1  498.13    9.14
   2   4   1  499.34    8.35
   2   4   1  485.31    8.19
   2   4   1  493.36    8.15
  -2  -4  -1  493.22    8.01
  -2  -4  -1  480.77    8.52
  -2  -4  -1  499.05    8.43
  -2  -4  -1  499.20    8.28
   2   4   1  496.44    8.56
  -2  -4  -1  508.04    8.15
   2   4   1  495.74    8.18
  -2  -4  -1  510.50    8.22
  -2  -4  -1  495.33    9.50
   2   4   1  481.45    8.40
  -2  -4  -1  514.02    7.58
   2   4   1  502.57    7.24
   2   4   1  498.97    8.22
  -2  -4  -2  764.51   11.67
  -2  -4  -2  803.45    9.98
   2   4   2  804.34   10.18
  -2  -4  -2  812.39   11.98
   2   4   2  796.49   11.65
   2   4   2  791.05   10.15
   2   4   2  789.46   10.11
   2   4   2  796.73   10.11
  -2  -4  -2  835.43    9.74
  -2  -4  -2  794.18   10.60
  -2  -4  -2  814.13   10.45
  -2  -4  -2  811.28   10.28
   2   4   2  798.60   10.37
  -2  -4  -2  817.53   10.06
  -2  -4  -2  820.42   10.15
   2   4   2  801.93   10.70
  -2  -4  -2  802.34   10.59
   2   4   2  795.52    7.90
   2   4   2  790.88   10.20
  -2  -4  -3  756.05   12.23
   2   4   3  777.12   11.37
   2   4   3  768.78   10.11
   2   4   3  755.40   10.12
   2   4   3  773.16   10.13
   2   4   3  755.00   10.10
  -2  -4  -3  759.19   10.64
  -2  -4  -3  787.99   10.12
  -2  -4  -3  773.01   10.26
  -2  -4  -3  754.53   10.43
  -2  -4  -3  760.19   10.08
   2   4   3  787.29   10.29
  -2  -4  -3  756.47    9.92
   2   4   3  758.75   10.64
  -2  -4  -3  745.90   10.70
  -2  -4  -3  726.38   11.18
   2   4   3  756.49   10.19
   2   4   4  664.17    9.97
  -2  -4  -4  725.79   12.66
   2   4   4  659.15    9.93
   2   4   4  670.14   10.10
  -2  -4  -4  708.91   11.49
   2   4   4  669.68    9.97
  -2  -4  -4  672.57    9.95
  -2  -4  -4  692.15   10.49
   2   4   4  709.17   10.80
  -2  -4  -4  677.14   10.13
  -2  -4  -4  676.72   10.04
   2   4   4  676.18   10.03
  -2  -4  -4  668.58    9.92
   2   4   4  674.68   10.74
  -2  -4  -4  681.61   10.66
   2   4   4  688.58   10.27
  -2  -4  -4  702.01   11.95
  -2  -4  -5 1638.73   20.18
   2   4   5 1566.08   15.78
   2   4   5 1635.97   16.60
  -2  -4  -5 1667.04   19.53
  -2  -4  -5 1644.23   18.76
  -2  -4  -5 1597.07   16.55
  -2  -4  -5 1605.20   17.07
  -2  -4  -5 1574.48   16.49
  -2  -4  -5 1564.87   16.37
   2   4   5 1608.39   16.48
   2   4   5 1641.47   16.93
  -2  -4  -5 1613.22   17.50
   2   4   5 1674.14   17.02
  -2  -4  -5 1588.44   19.69
   2   4   5 1657.91   16.76
   2   4   5 1670.59   16.83
   2   4   5 1588.99   17.63
  -2  -4  -6   36.67    3.26
  -2  -4  -6   36.13    3.23
   2   4   6   32.89    2.57
   2   4   6   33.86    2.63
   2   4   6   33.98    2.64
  -2  -4  -6   33.29    2.89
  -2  -4  -6   31.19    2.55
  -2  -4  -6   34.44    2.71
  -2  -4  -6   34.33    2.68
  -2  -4  -6   32.05    2.56
   2   4   6   34.53    2.65
   2   4   6   36.62    2.92
   2   4   6   35.96    2.72
  -2  -4  -6   33.41    2.74
   2   4   6   36.46    2.75
  -2  -4  -6   41.52    3.49
   2   4   7  190.00    6.72
  -2  -4  -7  178.88    7.76
   2   4   7  191.27    6.71
   2   4   7  187.81    6.69
  -2  -4  -7  181.30    7.57
  -2  -4  -7  188.11    7.34
  -2  -4  -7  192.21    6.86
  -2  -4  -7  190.16    6.77
  -2  -4  -7  189.85    6.75
   2   4   7  193.14    6.73
   2   4   7  174.16    6.84
  -2  -4  -7  192.53    7.04
   2   4   7  184.36    6.58
  -2  -4  -7  182.53    6.65
  -2  -4  -7  184.46    7.92
   2   4   7  185.78    6.62
   2   4   8  142.11    4.25
  -2  -4  -8  152.40    7.34
   2   4   8  149.34    4.24
  -2  -4  -8  145.95    4.01
   2   4   8  149.09    4.42
   2   4   8  145.26    6.67
  -2  -4  -8  135.20    7.31
   2   4   8  150.18    4.45
  -2  -4  -8  146.52    7.65
   2   4   8  140.53    4.23
  -2  -4  -9    7.78    0.98
   2   4   9    8.02    1.14
   2   4   9    8.19    1.16
   2   4   9    8.27    1.14
   2   4   9    7.81    1.14
   2   4  10    2.06    0.72
  -2  -4 -10    2.42    0.63
   2   4  10    2.76    0.76
  -2  -4 -10    1.81    0.65
   2   4  10    1.43    0.63
   2   4  10    2.42    0.76
   2   4  10    1.97    0.70
  -2  -4 -11  118.64    3.86
  -2  -4 -11  125.67    3.94
   2   4  11  116.14    3.71
  -2  -4 -11  120.89    3.73
   2   4  11  116.66    3.39
   2   4  11  122.19    3.76
   2   4  11  118.41    3.90
   2   4  11  115.13    3.87
  -2  -4 -12    7.87    0.96
  -2  -4 -12    7.63    0.96
  -2  -4 -12    7.96    0.91
  -2  -4 -12    8.51    1.02
   2   4  12    7.87    0.81
   2   4  12    7.12    0.97
   2   4  12    7.89    0.85
   2   4  12    9.56    1.09
  -2  -4 -12    7.86    0.86
   2   4  12    8.07    1.00
  -2  -4 -13   47.52    1.75
  -2  -4 -13   46.64    1.72
  -2  -4 -13   45.92    1.71
   2   4  13   42.22    1.63
  -2  -4 -13   44.65    1.52
   2   4  13   47.69    1.81
   2   4  13   45.73    1.77
  -2  -5   9   16.91    1.08
  -2  -5   9   15.08    0.84
   2   5  -9   16.87    1.16
   2   5  -9   18.03    1.21
  -2  -5   9   15.01    0.87
  -2  -5   9   17.88    1.10
  -2  -5   9   17.03    1.10
   2   5  -9   16.91    1.16
  -2  -5   8  108.09    3.21
  -2  -5   8  110.79    2.98
   2   5  -8  106.62    3.10
   2   5  -8  111.46    3.48
   2   5  -8  104.09    2.78
  -2  -5   8  110.02    2.99
   2   5  -8  109.54    3.44
  -2  -5   8  109.76    3.23
   2   5  -8  108.94    3.42
  -2  -5   8  110.38    3.17
  -2  -5   7 1091.48    9.95
  -2  -5   7 1147.43   11.61
   2   5  -7 1091.79   11.89
   2   5  -7 1112.80   10.87
   2   5  -7 1104.55   11.51
  -2  -5   7 1117.25   11.03
   2   5  -7 1093.89   11.97
  -2  -5   7 1108.64   10.88
   2   5  -7 1095.43   10.54
  -2  -5   7 1131.85   10.91
  -2  -5   7 1103.73   11.20
   2   5  -7 1134.29   12.08
  -2  -5   6    6.37    1.04
   2   5  -6    5.14    0.85
   2   5  -6    6.19    1.04
  -2  -5   6    6.97    1.05
  -2  -5   6    6.86    0.97
   2   5  -6    5.10    0.97
   2   5  -6    5.60    1.00
  -2  -5   6    4.65    0.88
   2   5  -6    5.79    0.88
   2   5  -6    4.96    0.92
   2   5  -6    6.25    0.85
  -2  -5   6    4.60    0.85
   2   5  -6    5.10    1.00
  -2  -5   5  254.00    5.68
   2   5  -5  255.97    5.97
   2   5  -5  243.03    5.23
  -2  -5   5  255.67    5.58
   2   5  -5  254.24    5.92
   2   5  -5  252.00    5.81
  -2  -5   5  245.44    5.28
   2   5  -5  256.60    6.00
   2   5  -5  252.81    5.48
  -2  -5   5  257.92    5.49
   2   5  -5  246.68    5.12
   2   5  -5  253.08    5.95
  -2  -5   4  607.50   15.20
  -2  -5   4  660.02    8.83
  -2  -5   4  600.66   14.19
   2   5  -4  645.53   15.95
  -2  -5   4  661.38   15.55
   2   5  -4  607.44    8.97
   2   5  -4  632.57    9.16
   2   5  -4  641.36   14.88
   2   5  -4  667.73   15.72
   2   5  -4  619.18    9.06
   2   5  -4  686.12   15.68
   2   5  -4  659.04   15.17
  -2  -5   4  662.74    8.73
  -2  -5   4  659.78   14.91
   2   5  -4  676.56   15.29
  -2  -5   4  660.74   15.20
  -2  -5   4  657.22   14.85
  -2  -5   4  675.58   15.00
   2   5  -4  632.01    9.17
   2   5  -4  683.03   15.32
   2   5  -4  616.02    8.50
  -2  -5   4  668.25   15.02
  -2  -5   4  624.46   15.42
  -2  -5   4  626.25    8.21
   2   5  -4  635.74    8.11
   2   5  -4  628.76   14.42
   2   5  -4  631.75    9.12
   2   5  -3   37.50    3.54
   2   5  -3   39.46    3.70
  -2  -5   3   37.69    3.47
   2   5  -3   37.72    3.47
  -2  -5   3   39.72    3.49
   2   5  -3   38.39    3.48
  -2  -5   3   39.73    3.48
  -2  -5   3   39.56    3.45
   2   5  -3   35.97    3.29
   2   5  -3   38.06    3.45
  -2  -5   3   38.56    3.41
  -2  -5   3   40.28    3.79
   2   5  -3   39.90    3.55
   2   5  -3   26.80    3.03
  -2  -5   3   32.57    3.27
  -2  -5   3   37.69    3.72
  -2  -5   3   35.58    3.46
  -2  -5   2    1.62    0.92
  -2  -5   2    3.23    0.99
   2   5  -2    3.35    1.10
   2   5  -2    4.80    1.29
   2   5  -2    2.83    1.06
   2   5  -2    3.62    1.08
  -2  -5   2    2.79    1.14
   2   5  -2    2.73    1.14
  -2  -5   2    4.12    1.17
  -2  -5   2    3.87    1.21
  -2  -5   2    2.93    0.98
  -2  -5   2    1.65    0.81
   2   5  -2    2.14    0.86
   2   5  -2    6.44    1.25
  -2  -5   2    2.66    1.02
  -2  -5   2    1.03    0.74
   2   5  -2    2.85    0.98
   2   5  -2    3.15    1.12
   2   5  -1  124.68    5.49
   2   5  -1  116.15    5.25
  -2  -5   1  126.32    5.65
   2   5  -1  112.31    5.40
  -2  -5   1  121.67    5.37
  -2  -5   1  116.53    5.22
   2   5  -1  113.36    5.31
  -2  -5   1  116.06    5.30
  -2  -5   1  121.08    5.33
   2   5  -1  115.59    4.81
   2   5  -1  121.82    5.36
  -2  -5   1  114.94    5.44
  -2  -5   1  118.37    5.75
  -2  -5   1  120.26    5.72
   2   5  -1  122.81    5.20
   2   5  -1  121.78    5.46
   2   5  -1  117.03    5.31
  -2  -5   1  118.54    5.08
  -2  -5   1  119.29    5.31
   2   5   0    0.26    0.48
   2   5   0   -0.38    0.57
   2   5   0    0.08    0.54
   2   5   0    0.46    0.66
  -2  -5   0    0.77    0.64
  -2  -5   0    0.76    0.61
  -2  -5   0    0.30    0.47
  -2  -5   0   -0.20    0.57
  -2  -5   0    0.02    0.62
  -2  -5   0   -0.73    0.68
   2   5   0   -0.34    0.70
  -2  -5   0   -0.13    0.54
   2   5   0    0.71    0.68
  -2  -5   0    0.95    0.67
  -2  -5   0    0.74    0.75
   2   5   0    0.06    0.58
   2   5   0    0.75    0.58
  -2  -5  -1  338.54    8.23
  -2  -5  -1  339.13    8.63
  -2  -5  -1  345.50    8.88
   2   5   1  334.23    8.10
   2   5   1  330.54    8.07
  -2  -5  -1  330.09    7.95
  -2  -5  -1  333.20    8.32
   2   5   1  334.23    8.49
  -2  -5  -1  334.01    8.02
   2   5   1  331.32    8.03
  -2  -5  -1  321.61    8.66
  -2  -5  -1  328.98    8.01
  -2  -5  -1  328.31    8.94
   2   5   1  325.25    8.19
   2   5   1  324.87    7.17
   2   5   1  351.23    8.46
   2   5   1  332.24    8.09
  -2  -5  -2   90.25    4.68
   2   5   2   95.34    4.28
   2   5   2  100.22    4.37
  -2  -5  -2   98.79    4.86
   2   5   2   95.33    4.71
  -2  -5  -2   91.59    4.18
  -2  -5  -2   93.26    4.11
  -2  -5  -2   85.60    4.12
  -2  -5  -2   92.22    4.62
  -2  -5  -2   91.72    4.10
   2   5   2   97.43    4.32
  -2  -5  -2   95.86    4.22
  -2  -5  -2   86.38    4.28
   2   5   2   92.46    4.37
  -2  -5  -2   91.46    4.02
   2   5   2   98.15    4.32
   2   5   2   93.88    4.23
   2   5   2   93.01    4.30
   2   5   3  188.87    6.07
   2   5   3  186.72    5.99
   2   5   3  192.06    6.01
  -2  -5  -3  188.24    6.97
   2   5   3  184.54    6.38
   2   5   3  191.01    5.98
  -2  -5  -3  184.43    5.99
   2   5   3  188.53    5.98
  -2  -5  -3  190.33    5.91
  -2  -5  -3  190.04    5.92
  -2  -5  -3  173.30    6.33
  -2  -5  -3  188.65    5.90
  -2  -5  -3  174.58    6.15
   2   5   3  182.62    6.15
   2   5   3  183.90    6.02
  -2  -5  -3  183.00    5.88
  -2  -5  -3  196.97    6.44
  -2  -5  -3  182.96    6.19
  -2  -5  -4  580.26   10.63
  -2  -5  -4  571.00   11.18
   2   5   4  580.36   10.66
  -2  -5  -4  562.36   12.49
   2   5   4  572.77   10.99
   2   5   4  589.53   10.79
   2   5   4  591.39   10.84
   2   5   4  584.43   10.84
  -2  -5  -4  566.99   11.59
  -2  -5  -4  583.17   10.63
  -2  -5  -4  590.21   11.20
  -2  -5  -4  591.78   10.91
  -2  -5  -4  568.37   10.58
   2   5   4  582.21   10.76
   2   5   4  523.49   10.78
  -2  -5  -4  560.75   11.22
   2   5   4  584.40   10.95
  -2  -5  -4  565.56   11.78
  -2  -5  -5    4.80    1.13
   2   5   5    4.85    1.15
  -2  -5  -5    5.96    1.19
  -2  -5  -5    8.45    1.56
  -2  -5  -5    6.76    1.32
  -2  -5  -5    3.96    1.02
   2   5   5    3.50    0.96
  -2  -5  -5    6.63    1.28
   2   5   5    4.97    1.13
   2   5   5    4.21    1.07
  -2  -5  -5    4.59    1.30
  -2  -5  -5    4.65    1.39
   2   5   5    6.04    1.21
   2   5   5    3.67    1.04
  -2  -5  -6  117.09    5.34
  -2  -5  -6  117.42    6.26
   2   5   6  122.11    5.45
   2   5   6  115.15    5.27
   2   5   6  114.38    5.28
  -2  -5  -6  109.95    5.78
  -2  -5  -6  109.43    5.88
  -2  -5  -6  118.37    5.54
  -2  -5  -6  119.49    5.42
  -2  -5  -6  111.23    5.24
   2   5   6  115.68    5.26
   2   5   6  120.55    5.69
   2   5   6  109.96    5.17
  -2  -5  -6  113.98    6.17
   2   5   6  114.94    5.30
  -2  -5  -6  109.40    5.45
   2   5   7    1.22    0.67
   2   5   7    0.51    0.61
   2   5   7    0.16    0.42
   2   5   7    0.29    0.68
   2   5   7    1.16    0.70
  -2  -5  -7   -0.01    0.61
   2   5   7   -0.01    0.40
   2   5   7   -0.46    0.41
   2   5   7    0.44    0.43
   2   5   7   -1.53    0.78
  -2  -5  -7   -0.59    0.99
   2   5   7    1.24    0.50
   2   5   7    0.49    0.52
  -2  -5  -7    2.08    1.09
   2   5   8  680.24    9.31
  -2  -5  -8  675.80    8.68
   2   5   8  673.46    9.54
  -2  -5  -8  683.13   16.28
  -2  -5  -8  667.16   16.66
   2   5   8  686.97    9.40
   2   5   8  680.99    9.80
   2   5   8  640.41   14.69
  -2  -5  -8  683.66   17.02
   2   5   8  684.72    9.80
   2   5   8  689.31    9.35
   2   5   9    1.08    0.65
  -2  -5  -9    0.64    0.43
   2   5   9   -0.18    0.40
   2   5   9    1.55    0.68
   2   5   9    1.09    0.58
   2   5   9    1.36    0.56
   2   5  10    0.27    0.50
  -2  -5 -10   -0.12    0.42
   2   5  10   -0.04    0.54
  -2  -5 -10    0.03    0.52
   2   5  10   -0.16    0.61
   2   5  10    0.22    0.51
   2   5  11    9.81    1.09
  -2  -5 -11   12.67    1.32
  -2  -5 -11   12.33    1.10
   2   5  11   14.54    1.36
  -2  -5 -11   12.17    1.29
   2   5  11   11.76    1.26
   2   5  11    9.92    1.16
   2   5  11    9.93    1.17
   2   5  11   11.40    1.24
  -2  -5 -12   35.72    1.83
  -2  -5 -12   35.82    1.82
   2   5  12   33.95    1.82
   2   5  12   32.66    1.66
   2   5  12   33.69    1.70
  -2  -5 -12   35.09    1.44
  -2  -5 -12   37.18    1.82
  -2  -5 -12   33.44    1.72
   2   5  12   35.05    1.68
   2   5  12   36.41    1.86
  -2  -5 -13   17.46    1.02
  -2  -5 -13   17.59    1.03
  -2  -5 -13   17.64    1.00
  -2  -5 -13   17.11    0.95
   2   5  13   19.25    1.10
   2   5  13   17.53    1.05
  -2  -6   8    4.02    0.61
   2   6  -8    3.86    0.57
   2   6  -8    4.00    0.63
   2   6  -8    3.55    0.59
  -2  -6   8    3.27    0.53
  -2  -6   8    4.18    0.49
  -2  -6   8    4.30    0.56
  -2  -6   8    4.33    0.54
   2   6  -8    3.64    0.60
  -2  -6   7   85.11    2.34
  -2  -6   7   88.45    2.88
   2   6  -7   88.65    2.96
   2   6  -7   86.47    2.66
  -2  -6   7   87.75    2.55
   2   6  -7   85.45    2.91
  -2  -6   7   82.88    2.63
   2   6  -7   81.90    2.77
  -2  -6   7   90.28    2.76
  -2  -6   7   86.54    2.65
   2   6  -7   85.19    2.92
  -2  -6   6   77.77    2.73
  -2  -6   6   79.70    3.03
   2   6  -6   78.61    3.11
   2   6  -6   75.50    3.05
  -2  -6   6   79.12    2.93
   2   6  -6   79.14    3.12
   2   6  -6   76.24    2.97
  -2  -6   6   78.73    2.69
  -2  -6   6   78.44    2.87
  -2  -6   6   80.32    2.82
   2   6  -6   82.30    3.17
  -2  -6   5   90.00    3.21
  -2  -6   5   87.07    3.32
  -2  -6   5   87.93    3.27
  -2  -6   5   82.67    2.79
   2   6  -5   86.61    3.46
   2   6  -5   86.57    3.42
   2   6  -5   88.26    3.46
  -2  -6   5   86.48    3.25
   2   6  -5   82.82    3.39
   2   6  -5   86.92    2.93
  -2  -6   5   84.80    3.01
   2   6  -5   87.01    3.45
   2   6  -4  556.54    8.72
  -2  -6   4  564.81    8.48
  -2  -6   4  558.01    8.30
   2   6  -4  550.19    8.77
   2   6  -4  538.17    8.77
   2   6  -4  550.65    7.94
  -2  -6   4  560.24    8.30
   2   6  -4  537.81    8.82
   2   6  -4  546.35    7.62
   2   6  -4  553.14    8.68
  -2  -6   3    1.17    0.54
   2   6  -3    0.52    0.34
  -2  -6   3    0.65    0.53
   2   6  -3    0.34    0.45
  -2  -6   3    2.39    1.15
   2   6  -3    0.51    0.51
  -2  -6   3    0.76    0.51
  -2  -6   3    0.24    1.09
   2   6  -3    0.08    0.46
   2   6  -3    0.38    0.37
   2   6  -3    0.42    0.54
  -2  -6   2 1133.80   19.31
  -2  -6   2 1051.70   10.89
  -2  -6   2 1102.36   19.01
   2   6  -2 1089.84   11.89
   2   6  -2 1044.81   12.01
   2   6  -2 1109.04   19.85
  -2  -6   2 1084.62   19.80
  -2  -6   2 1077.06   11.12
  -2  -6   2 1042.24   10.91
   2   6  -2 1071.37   12.04
   2   6  -2 1111.39   19.28
   2   6  -2 1089.42   19.20
  -2  -6   2 1113.34   19.57
   2   6  -2 1056.99   11.56
  -2  -6   2 1132.41   19.36
  -2  -6   2 1042.92   19.75
   2   6  -2 1049.72   19.08
  -2  -6   2 1035.64   18.66
   2   6  -2 1045.63   19.13
   2   6  -2 1079.74   10.74
  -2  -6   2 1019.86   19.63
   2   6  -2 1051.45   11.45
   2   6  -2 1099.43   19.25
   2   6  -1  283.30    5.88
   2   6  -1  284.77    9.41
   2   6  -1  254.00    5.72
   2   6  -1  284.87    9.70
   2   6  -1  271.99    5.98
   2   6  -1  286.40    9.43
  -2  -6   1  276.09    9.15
  -2  -6   1  277.00    9.83
  -2  -6   1  278.53    9.39
  -2  -6   1  281.24    9.28
  -2  -6   1  268.73    9.12
  -2  -6   1  270.76    9.26
  -2  -6   1  278.18    9.61
  -2  -6   1  279.34    9.84
   2   6  -1  286.70    9.53
   2   6  -1  263.31    8.70
   2   6  -1  264.64    9.55
   2   6  -1  286.40    9.60
  -2  -6   1  281.15    9.90
   2   6  -1  279.45    9.36
   2   6   0   14.29    2.08
   2   6   0   14.10    2.07
   2   6   0   12.85    2.03
   2   6   0   11.97    1.89
  -2  -6   0   11.39    1.95
  -2  -6   0   11.05    1.91
  -2  -6   0   13.45    1.97
  -2  -6   0   11.22    1.89
  -2  -6   0   13.00    2.07
  -2  -6   0   13.05    2.00
  -2  -6   0   12.57    1.97
   2   6   0   14.44    2.16
  -2  -6   0   11.51    1.80
   2   6   0   14.20    2.09
  -2  -6   0   11.97    1.85
  -2  -6   0   13.30    2.15
   2   6   0   13.73    1.88
   2   6   0   10.89    1.85
   2   6   1   63.58    4.19
  -2  -6  -1   57.72    4.23
   2   6   1   61.66    4.09
   2   6   1   65.21    4.19
   2   6   1   66.26    4.25
  -2  -6  -1   61.35    4.00
  -2  -6  -1   61.03    4.31
  -2  -6  -1   59.44    4.13
  -2  -6  -1   65.29    4.25
   2   6   1   63.53    4.26
  -2  -6  -1   62.69    4.06
   2   6   1   66.79    4.26
  -2  -6  -1   60.91    4.03
  -2  -6  -1   55.07    4.15
  -2  -6  -1   60.07    4.26
   2   6   1   58.13    4.04
   2   6   2  142.31    6.08
  -2  -6  -2  131.05    6.44
   2   6   2  140.79    6.59
   2   6   2  141.26    6.06
   2   6   2  139.36    6.00
   2   6   2  140.51    6.05
  -2  -6  -2  143.82    5.99
  -2  -6  -2  145.57    6.41
  -2  -6  -2  142.80    6.18
  -2  -6  -2  145.14    6.13
   2   6   2  143.13    6.21
  -2  -6  -2  134.02    5.81
   2   6   2  147.34    6.17
  -2  -6  -2  135.56    5.90
  -2  -6  -2  135.90    6.28
  -2  -6  -2  134.60    6.45
   2   6   2  138.22    6.12
  -2  -6  -3  145.85    6.95
   2   6   3  155.58    6.70
   2   6   3  153.54    6.27
   2   6   3  150.18    6.24
   2   6   3  153.97    6.32
  -2  -6  -3  155.40    6.24
  -2  -6  -3  153.76    6.58
  -2  -6  -3  154.51    6.41
  -2  -6  -3  153.34    6.33
   2   6   3  156.09    6.45
  -2  -6  -3  153.44    6.17
  -2  -6  -3  144.95    6.40
  -2  -6  -3  142.24    6.45
   2   6   3  149.82    6.31
  -2  -6  -3  145.04    6.80
   2   6   3  145.92    6.36
   2   6   3  148.00    6.15
  -2  -6  -3  174.11    6.65
   2   6   4   75.72    4.45
  -2  -6  -4   87.40    5.54
  -2  -6  -4   68.58    4.54
   2   6   4   74.88    4.56
   2   6   4   72.12    4.34
   2   6   4   76.14    4.48
  -2  -6  -4   67.55    4.19
  -2  -6  -4   76.44    4.68
  -2  -6  -4   71.64    4.41
  -2  -6  -4   69.38    4.29
   2   6   4   69.31    4.28
  -2  -6  -4   70.34    4.52
  -2  -6  -4   76.43    4.43
   2   6   4   65.49    4.36
   2   6   4   74.06    4.48
  -2  -6  -4   68.82    4.52
   2   6   4   73.77    4.40
   2   6   5   12.53    1.81
   2   6   5    8.21    1.51
   2   6   5   11.77    1.87
  -2  -6  -5   11.65    1.89
   2   6   5    9.78    1.71
   2   6   5   10.24    1.73
  -2  -6  -5    8.92    1.60
   2   6   5    9.62    1.69
  -2  -6  -5   11.51    2.18
  -2  -6  -5    9.79    1.68
  -2  -6  -5    8.91    1.68
  -2  -6  -5    9.51    1.61
  -2  -6  -5    8.79    1.63
  -2  -6  -5   11.94    2.09
  -2  -6  -5    9.44    1.69
   2   6   5    8.60    1.64
  -2  -6  -6   81.67    2.93
   2   6   6   79.71    3.26
   2   6   6   79.73    3.14
  -2  -6  -6   78.58    5.60
   2   6   6   79.66    4.77
   2   6   6   77.55    4.76
  -2  -6  -6   78.65    5.24
   2   6   6   80.94    4.82
   2   6   6   84.28    3.33
  -2  -6  -6   75.40    4.89
   2   6   6   78.25    3.21
   2   6   6   75.95    4.75
   2   6   6   81.13    4.89
   2   6   6   78.29    5.01
  -2  -6  -6   68.59    5.15
   2   6   6   78.36    4.75
   2   6   6   72.28    3.06
   2   6   7   65.18    3.03
  -2  -6  -7   68.44    2.71
   2   6   7   69.83    3.13
  -2  -6  -7   73.77    5.56
   2   6   7   73.52    3.03
  -2  -6  -7   75.74    5.45
   2   6   7   72.18    3.16
   2   6   7   70.35    3.15
   2   6   7   66.01    4.75
  -2  -6  -7   71.15    5.51
  -2  -6  -8    0.75    0.43
   2   6   8    0.70    0.54
   2   6   8    1.24    0.55
   2   6   8    0.94    0.61
   2   6   8    0.43    0.40
   2   6   9  233.68    5.40
  -2  -6  -9  235.66    5.21
   2   6   9  235.25    5.44
  -2  -6  -9  245.80    5.55
   2   6   9  238.89    5.89
   2   6   9  225.44    5.69
   2   6   9  227.77    5.30
  -2  -6 -10   17.90    1.38
  -2  -6 -10   14.91    1.36
   2   6  10   15.64    1.52
  -2  -6 -10   15.46    1.45
   2   6  10   16.09    1.54
   2   6  10   14.63    1.36
   2   6  10   16.28    1.45
  -2  -6 -11  400.55    5.38
  -2  -6 -11  419.89    6.48
   2   6  11  372.00    5.32
  -2  -6 -11  418.03    6.04
   2   6  11  411.40    6.62
  -2  -6 -11  429.37    6.59
   2   6  11  408.23    6.69
   2   6  11  417.47    6.47
   2   6  11  398.10    6.25
   2   6  11  395.86    6.27
  -2  -6 -12   80.92    2.44
  -2  -6 -12   77.20    2.29
  -2  -6 -12   77.19    2.43
   2   6  12   75.22    2.37
  -2  -6 -12   80.58    2.43
  -2  -6 -12   78.50    2.10
   2   6  12   74.94    2.25
   2   6  12   79.92    2.42
   2   6  12   81.38    2.44
  -2  -6 -13    4.38    0.50
  -2  -6 -13    4.27    0.49
  -2  -6 -13    5.18    0.52
  -2  -7   7   25.30    1.20
  -2  -7   7   26.29    1.17
   2   7  -7   25.10    1.15
   2   7  -7   25.01    1.16
  -2  -7   7   25.04    1.11
   2   7  -7   26.45    1.20
  -2  -7   6  174.62    3.31
  -2  -7   6  186.78    3.87
   2   7  -6  178.92    3.92
  -2  -7   6  190.67    3.81
   2   7  -6  180.97    3.92
   2   7  -6  185.02    3.86
   2   7  -6  181.59    3.77
  -2  -7   6  186.39    3.73
   2   7  -6  179.49    3.83
  -2  -7   5    5.46    0.81
  -2  -7   5    5.02    0.84
   2   7  -5    3.97    0.77
   2   7  -5    4.98    0.85
  -2  -7   5    4.44    0.78
   2   7  -5    4.14    0.82
   2   7  -5    4.58    0.81
  -2  -7   5    6.05    0.88
   2   7  -5    4.27    0.77
  -2  -7   4   31.84    1.92
  -2  -7   4   31.45    1.92
  -2  -7   4   29.72    1.71
   2   7  -4   30.46    2.00
  -2  -7   4   29.43    1.86
   2   7  -4   30.08    2.03
   2   7  -4   28.25    2.01
   2   7  -4   28.29    1.90
  -2  -7   4   29.96    1.89
   2   7  -4   30.88    1.70
   2   7  -4   30.17    1.94
  -2  -7   3  159.65    4.41
  -2  -7   3  164.13    4.42
  -2  -7   3  163.33    4.31
   2   7  -3  168.09    4.76
   2   7  -3  156.95    4.76
  -2  -7   3  163.54    4.43
   2   7  -3  152.62    4.70
   2   7  -3  166.02    4.64
  -2  -7   3  169.08    4.56
   2   7  -3  159.25    4.11
   2   7  -3  164.75    4.55
  -2  -7   2    0.90    0.53
  -2  -7   2   -1.35    0.58
   2   7  -2    0.56    0.50
  -2  -7   2    1.30    0.83
   2   7  -2    0.24    0.51
   2   7  -2   -0.67    0.53
   2   7  -2    0.23    0.54
   2   7  -2    0.81    0.53
  -2  -7   2    0.56    0.46
   2   7  -2    0.47    0.42
   2   7  -2    0.50    0.53
  -2  -7   1   79.60    3.15
  -2  -7   1   80.49    2.98
  -2  -7   1   80.44    3.02
  -2  -7   1   80.08    3.13
   2   7  -1   80.42    3.28
   2   7  -1   79.02    3.39
   2   7  -1   82.14    3.50
   2   7  -1   75.49    3.09
   2   7  -1   76.89    3.19
  -2  -7   1   81.43    3.13
   2   7  -1   81.30    3.05
   2   7  -1   82.48    3.22
  -2  -7   0  103.10    3.53
  -2  -7   0  104.77    3.54
   2   7   0  101.02    3.78
   2   7   0   96.00    3.61
  -2  -7   0   96.97    3.20
   2   7   0   98.36    5.97
   2   7   0   99.68    3.80
   2   7   0  104.32    5.99
  -2  -7   0   99.78    5.90
  -2  -7   0  102.53    6.42
  -2  -7   0  100.18    6.13
  -2  -7   0  102.72    6.08
   2   7   0  101.08    3.65
   2   7   0   99.70    6.18
  -2  -7   0  105.49    6.06
   2   7   0   99.06    3.56
   2   7   0  101.66    6.05
  -2  -7   0  102.40    5.98
  -2  -7   0   90.98    5.72
  -2  -7   0   99.15    3.38
  -2  -7   0   97.14    6.23
   2   7   0   97.77    6.06
  -2  -7   0   90.93    5.94
   2   7   0   95.77    5.85
   2   7   0  104.00    3.47
   2   7   0  108.66    6.22
   2   7   0  103.18    3.53
   2   7   1  492.33   12.96
  -2  -7  -1  505.83    7.66
   2   7   1  481.63    8.06
   2   7   1  484.77    8.20
   2   7   1  488.84   14.04
   2   7   1  492.35   12.98
   2   7   1  483.03   12.83
  -2  -7  -1  474.47   13.39
   2   7   1  501.85    8.37
  -2  -7  -1  506.32   12.88
  -2  -7  -1  486.43   13.52
   2   7   1  510.34   13.24
  -2  -7  -1  509.85   13.43
   2   7   1  489.43   13.13
  -2  -7  -1  491.81   12.95
   2   7   1  484.05    8.11
  -2  -7  -1  465.33   12.85
  -2  -7  -1  511.04    7.41
  -2  -7  -1  493.11   12.77
   2   7   1  481.55    7.74
   2   7   1  484.45   12.90
  -2  -7  -1  502.58   12.99
  -2  -7  -1  457.73   13.12
   2   7   1  472.85   12.93
  -2  -7  -1  498.42   13.35
  -2  -7  -1  498.29    7.60
   2   7   1  496.74    7.58
   2   7   1  487.40    7.47
   2   7   2  133.85    6.68
  -2  -7  -2  138.10    3.94
  -2  -7  -2  135.26    3.87
   2   7   2  135.80    4.31
   2   7   2  135.13    4.31
   2   7   2  135.36    7.20
   2   7   2  134.30    6.67
  -2  -7  -2  132.98    7.19
   2   7   2  132.29    4.28
   2   7   2  137.16    6.77
  -2  -7  -2  131.87    6.49
  -2  -7  -2  141.02    7.14
   2   7   2  134.62    6.69
  -2  -7  -2  142.42    6.85
   2   7   2  137.94    4.36
  -2  -7  -2  133.09    6.53
  -2  -7  -2  127.01    6.89
  -2  -7  -2  133.23    6.80
   2   7   2  127.79    6.65
   2   7   2  143.86    4.07
  -2  -7  -2  133.28    6.72
   2   7   2  134.18    3.88
   2   7   2  137.34    6.80
  -2  -7  -3  127.66    3.70
   2   7   3  119.47    6.44
   2   7   3  123.69    4.14
  -2  -7  -3  122.38    6.18
   2   7   3  127.50    4.18
   2   7   3  125.95    6.35
  -2  -7  -3  126.45    7.16
   2   7   3  126.21    6.37
   2   7   3  135.75    4.27
   2   7   3  127.52    6.41
   2   7   3  125.65    6.39
  -2  -7  -3  127.98    6.35
  -2  -7  -3  132.16    6.85
  -2  -7  -3  130.16    6.57
  -2  -7  -3  126.61    6.41
   2   7   3  126.98    4.21
   2   7   3  135.00    6.64
  -2  -7  -3  125.76    6.84
  -2  -7  -3  122.52    6.40
   2   7   3  122.94    6.43
  -2  -7  -3  111.42    6.48
   2   7   3  131.26    6.92
   2   7   3  119.76    3.72
  -2  -7  -4  172.24    4.16
  -2  -7  -4  182.07    4.59
   2   7   4  167.88    4.87
   2   7   4  179.74    4.94
  -2  -7  -4  170.03    8.41
   2   7   4  171.57    7.41
   2   7   4  174.26    7.47
   2   7   4  177.33    4.84
   2   7   4  168.87    7.38
   2   7   4  169.16    7.39
  -2  -7  -4  177.18    7.50
  -2  -7  -4  177.10    7.80
  -2  -7  -4  174.60    7.56
   2   7   4  168.77    4.89
  -2  -7  -4  167.91    7.36
   2   7   4  168.34    4.51
   2   7   4  166.60    7.32
  -2  -7  -4  169.81    7.29
  -2  -7  -4  171.07    7.91
   2   7   4  167.06    7.45
  -2  -7  -4  149.01    7.58
   2   7   4  174.45    7.84
   2   7   4  167.12    4.55
  -2  -7  -5    0.66    0.40
   2   7   5    2.10    0.73
   2   7   5    1.14    0.57
   2   7   5    0.85    0.53
  -2  -7  -5    3.77    1.44
   2   7   5    1.23    0.54
   2   7   5    0.64    0.46
  -2  -7  -5    1.38    1.05
   2   7   5    1.16    0.54
   2   7   5    1.92    0.82
  -2  -7  -6  359.81    6.49
  -2  -7  -6  352.87    6.24
   2   7   6  347.98    7.05
   2   7   6  366.08    6.83
   2   7   6  360.99    7.17
   2   7   6  345.45    6.88
   2   7   6  348.20    6.89
  -2  -7  -7    2.59    0.67
  -2  -7  -7    2.78    0.69
  -2  -7  -7    2.43    0.62
   2   7   7    5.22    0.96
   2   7   7    4.10    0.82
   2   7   7    2.29    0.66
   2   7   7    2.79    0.79
   2   7   7    3.13    0.84
  -2  -7  -8    8.13    0.98
  -2  -7  -8    6.77    1.00
   2   7   8    7.90    1.10
   2   7   8    8.61    1.18
   2   7   8    8.12    1.03
   2   7   8    6.23    1.06
   2   7   8    7.29    1.12
  -2  -7  -9   73.83    2.95
  -2  -7  -9   74.91    2.89
   2   7   9   73.58    2.95
   2   7   9   72.87    3.15
   2   7   9   71.97    3.09
   2   7   9   70.71    2.70
  -2  -7 -10   15.63    1.25
  -2  -7 -10   17.09    1.37
   2   7  10   15.48    1.42
   2   7  10   17.42    1.50
  -2  -7 -10   17.10    1.42
   2   7  10   17.34    1.27
   2   7  10   16.57    1.26
  -2  -7 -11   31.64    1.43
  -2  -7 -11   33.23    1.60
  -2  -7 -11   31.42    1.58
   2   7  11   31.25    1.71
  -2  -7 -11   33.10    1.68
   2   7  11   33.12    1.76
   2   7  11   29.37    1.60
   2   7  11   31.22    1.48
   2   7  11   31.56    1.52
  -2  -7 -12  101.64    2.15
  -2  -7 -12  101.88    2.38
  -2  -7 -12  109.97    2.19
   2   7  12  106.32    2.43
  -2  -7 -12  107.36    2.43
   2   7  12   85.87    2.03
   2   7  12   89.71    1.91
  -2  -8   5   16.72    0.98
  -2  -8   5   17.20    1.04
   2   8  -5   17.78    1.15
   2   8  -5   16.53    1.09
   2   8  -5   17.19    0.99
  -2  -8   5   16.82    1.05
  -2  -8   5   17.13    1.05
   2   8  -5   16.21    0.95
  -2  -8   4   18.69    1.27
  -2  -8   4   17.81    1.22
  -2  -8   4   17.41    1.07
  -2  -8   4   18.55    1.26
   2   8  -4   18.31    1.37
   2   8  -4   17.72    1.35
   2   8  -4   19.71    1.29
  -2  -8   4   18.00    1.26
   2   8  -4   18.26    1.20
  -2  -8   3   96.19    3.08
  -2  -8   3   93.90    2.90
  -2  -8   3   93.20    2.86
  -2  -8   3   93.18    2.58
  -2  -8   3   95.28    3.06
  -2  -8   3   92.74    2.93
   2   8  -3   92.14    3.28
   2   8  -3   89.80    3.25
   2   8  -3   89.59    2.95
   2   8  -3   88.31    2.62
   2   8  -3   91.08    2.89
  -2  -8   2    0.61    0.59
  -2  -8   2    0.68    0.40
  -2  -8   2    0.61    0.47
   2   8  -2    0.20    0.43
  -2  -8   2    0.88    0.49
   2   8  -2    0.95    0.69
   2   8  -2    1.36    0.71
   2   8  -2    0.17    0.41
  -2  -8   2    0.17    0.45
   2   8  -2    0.56    0.46
  -2  -8   1    1.33    0.56
  -2  -8   1    1.19    0.58
   2   8  -1    1.53    0.60
  -2  -8   1    1.02    0.42
   2   8  -1    1.32    0.64
   2   8  -1    1.25    0.67
   2   8  -1    0.69    0.47
   2   8  -1    1.60    0.58
  -2  -8   1    0.63    0.46
   2   8  -1    2.75    0.67
   2   8  -1    1.57    0.57
  -2  -8   0  254.86    5.56
  -2  -8   0  251.00    5.46
   2   8   0  243.19    5.66
  -2  -8   0  247.97    4.89
   2   8   0  254.45    5.99
   2   8   0  248.36    5.99
   2   8   0  242.42    5.56
   2   8   0  255.70    5.53
  -2  -8   0  250.78    5.33
   2   8   0  248.09    5.33
   2   8   0  248.67    5.21
  -2  -8  -1    1.23    0.52
  -2  -8  -1    0.96    0.49
   2   8   1    1.16    0.58
   2   8   1    1.09    0.65
   2   8   1    1.40    0.64
  -2  -8  -1    1.81    0.57
   2   8   1    1.19    0.60
   2   8   1    1.61    0.69
  -2  -8  -2   83.00    3.10
  -2  -8  -2   83.28    3.14
  -2  -8  -2   86.60    3.29
   2   8   2   77.73    3.34
   2   8   2   79.35    3.37
   2   8   2   82.17    3.46
   2   8   2   77.82    3.36
  -2  -8  -2   82.40    2.95
  -2  -8  -3  415.16    6.66
  -2  -8  -3  416.45    6.82
   2   8   3  415.57    7.62
  -2  -8  -3  416.76    7.13
   2   8   3  403.10    7.60
   2   8   3  396.20    7.58
   2   8   3  408.54    7.55
   2   8   3  397.05    6.75
  -2  -8  -4  300.31    6.06
  -2  -8  -4  305.87    5.67
  -2  -8  -4  305.72    6.07
   2   8   4  297.20    6.58
   2   8   4  299.01    6.42
   2   8   4  300.33    6.65
   2   8   4  299.12    6.32
   2   8   4  301.49    6.01
  -2  -8  -5   43.57    2.34
  -2  -8  -5   42.02    2.26
   2   8   5   43.89    2.58
   2   8   5   42.09    2.41
   2   8   5   43.29    2.37
   2   8   5   39.21    2.45
   2   8   5   42.32    2.31
   2   8   5   41.42    2.31
  -2  -8  -6   21.02    1.62
  -2  -8  -6   23.05    1.64
   2   8   6   22.08    1.84
   2   8   6   22.27    1.76
   2   8   6   20.68    1.68
   2   8   6   20.57    1.70
   2   8   6   23.53    1.71
   2   8   6   21.58    1.79
  -2  -8  -7  243.95    5.15
  -2  -8  -7  247.60    5.41
  -2  -8  -7  244.62    4.89
   2   8   7  242.39    5.69
   2   8   7  247.91    5.45
   2   8   7  249.11    5.71
   2   8   7  241.03    5.53
   2   8   7  237.47    5.48
  -2  -8  -8  672.64    7.85
  -2  -8  -8  658.99    8.45
   2   8   8  653.59    8.85
   2   8   8  649.71    8.84
   2   8   8  673.90    8.15
   2   8   8  648.66    8.72
  -2  -8  -8  673.07    8.49
   2   8   8  641.85    8.72
  -2  -8  -9   16.27    1.10
  -2  -8  -9   17.49    1.32
  -2  -8  -9   16.86    1.35
   2   8   9   15.21    1.35
   2   8   9   16.25    1.39
   2   8   9   17.84    1.36
  -2  -8 -10   36.40    1.64
  -2  -8 -10   33.91    1.41
  -2  -8 -10   37.44    1.72
   2   8  10   35.80    1.81
  -2  -8 -10   31.38    1.62
   2   8  10   36.41    1.81
  -2  -8 -11  191.64    2.87
  -2  -8 -11  201.70    3.24
   2   8  11  213.35    3.63
  -2  -8 -11  205.52    3.30
   2   8  11  197.83    3.47
  -2  -9   3   76.96    2.06
  -2  -9   3   74.43    1.80
  -2  -9   3   74.12    1.88
   2   9  -3   76.71    2.25
   2   9  -3   77.35    2.25
  -2  -9   3   78.66    2.09
  -2  -9   2   21.24    1.29
  -2  -9   2   22.18    1.25
  -2  -9   2   20.72    1.06
  -2  -9   2   22.50    1.18
   2   9  -2   22.94    1.45
   2   9  -2   21.54    1.42
  -2  -9   2   22.26    1.28
  -2  -9   1  116.74    3.18
  -2  -9   1  117.11    3.11
  -2  -9   1  122.38    2.80
  -2  -9   1  120.89    3.11
  -2  -9   1  118.66    2.93
   2   9  -1  114.43    3.05
   2   9  -1  123.06    3.51
   2   9  -1  115.01    3.44
  -2  -9   0    0.34    0.46
  -2  -9   0    0.20    0.35
  -2  -9   0    0.56    0.52
  -2  -9   0    0.77    0.48
   2   9   0    0.48    0.44
   2   9   0    0.19    0.47
   2   9   0    0.68    0.55
   2   9   0    0.86    0.46
  -2  -9   0    0.04    0.39
  -2  -9  -1    2.05    0.61
  -2  -9  -1    2.80    0.58
  -2  -9  -1    1.92    0.61
  -2  -9  -1    2.63    0.68
   2   9   1    2.24    0.68
   2   9   1    1.93    0.70
   2   9   1    1.95    0.69
   2   9   1    1.96    0.57
  -2  -9  -1    2.15    0.54
   2   9   1    2.78    0.64
  -2  -9  -2   25.98    1.60
  -2  -9  -2   24.98    1.59
  -2  -9  -2   25.10    1.62
  -2  -9  -2   27.43    1.75
   2   9   2   25.42    1.79
   2   9   2   27.01    1.84
   2   9   2   24.77    1.74
   2   9   2   24.29    1.74
  -2  -9  -2   26.87    1.52
   2   9   2   23.26    1.52
  -2  -9  -3    0.76    0.40
  -2  -9  -3    0.38    0.45
  -2  -9  -3    0.96    0.49
  -2  -9  -3    0.23    0.47
   2   9   3    0.56    0.58
   2   9   3    1.80    0.62
   2   9   3    0.48    0.49
   2   9   3    0.58    0.50
   2   9   3    1.09    0.44
  -2  -9  -4  240.04    4.97
  -2  -9  -4  239.03    4.59
   2   9   4  231.43    5.07
  -2  -9  -4  238.85    5.03
   2   9   4  229.55    5.34
   2   9   4  238.43    5.24
   2   9   4  231.31    5.38
  -2  -9  -5  151.49    3.95
  -2  -9  -5  155.61    3.96
   2   9   5  161.27    4.43
   2   9   5  155.41    3.94
   2   9   5  155.56    4.37
   2   9   5  147.42    3.74
  -2  -9  -6  348.28    5.74
  -2  -9  -6  353.43    5.87
  -2  -9  -6  334.78    5.51
   2   9   6  339.47    6.22
  -2  -9  -6  335.27    5.38
   2   9   6  336.59    6.08
   2   9   6  340.90    6.25
   2   9   6  321.44    5.41
   2   9   6  332.38    5.61
  -2  -9  -7  136.47    3.39
  -2  -9  -7  128.03    3.43
  -2  -9  -7  130.31    3.14
   2   9   7  134.33    3.72
   2   9   7  132.32    3.48
   2   9   7  132.23    3.67
  -2  -9  -7  132.82    3.28
   2   9   7  127.16    3.38
   2   9   7  130.99    3.46
  -2  -9  -8   20.49    1.22
  -2  -9  -8   19.31    1.29
  -2  -9  -8   19.64    1.06
   2   9   8   19.31    1.36
   2   9   8   17.86    1.13
   2   9   8   19.30    1.32
  -2  -9  -8   20.50    1.28
   2   9   8   18.14    1.27
   2   9   8   18.97    1.31
  -2  -9  -9  119.99    2.32
  -2  -9  -9  122.43    2.79
   2   9   9  118.99    2.70
  -2  -9  -9  123.53    2.73
   2   9   9  121.55    2.87
   2   9   9  123.88    2.88
  -2  -9 -10    8.21    0.63
   2   9  10    8.00    0.70
  -2  -9 -10    8.40    0.65
   2   9  10    8.60    0.71
  -2 -10   1  188.10    2.59
  -2 -10   1  185.99    2.50
   2  10  -1  187.63    2.76
   2  10  -1  183.06    2.76
  -2 -10   0   74.09    1.87
  -2 -10   0   71.77    1.87
  -2 -10   0   63.57    1.57
   2  10   0   71.08    1.99
   2  10   0   73.34    2.03
  -2 -10   0   65.12    1.56
   2  10   0   65.73    1.64
  -2 -10  -1   89.39    2.16
  -2 -10  -1   95.94    2.33
  -2 -10  -1   91.50    2.22
   2  10   1   86.99    2.25
   2  10   1   95.08    2.48
   2  10   1   91.42    2.42
   2  10   1   80.76    2.30
   2  10   1   83.40    2.11
  -2 -10  -1   85.66    1.86
   2  10   1   84.49    1.95
  -2 -10  -2    1.57    0.36
  -2 -10  -2    1.24    0.41
   2  10   2    1.44    0.44
  -2 -10  -2    1.94    0.48
  -2 -10  -2    1.51    0.47
   2  10   2    1.18    0.50
   2  10   2    1.02    0.42
   2  10   2    1.32    0.55
   2  10   2    1.58    0.49
  -2 -10  -3   55.21    1.82
  -2 -10  -3   56.90    1.83
  -2 -10  -3   47.54    1.55
  -2 -10  -3   55.40    1.96
   2  10   3   51.48    2.00
   2  10   3   54.45    2.06
   2  10   3   51.91    1.87
   2  10   3   51.75    2.07
  -2 -10  -4  175.56    3.33
  -2 -10  -4  171.68    2.95
  -2 -10  -4  167.87    3.06
  -2 -10  -4  175.01    3.44
   2  10   4  170.76    3.66
   2  10   4  168.01    3.66
   2  10   4  169.69    3.65
  -2 -10  -5   16.39    1.07
  -2 -10  -5   16.23    1.02
  -2 -10  -5   17.00    1.08
   2  10   5   15.56    1.16
   2  10   5   16.02    1.15
   2  10   5   16.96    1.20
  -2 -10  -6    0.45    0.37
  -2 -10  -6    0.50    0.33
   2  10   6    0.03    0.43
   2  10   6    0.29    0.35
   2  10   6    0.32    0.39
  -2 -10  -7  970.61    6.78
  -2 -10  -7  959.52    6.81
   2  10   7  969.15    7.44
   2  10   7  972.87    7.40
  -2 -10  -8   30.09    1.09
   3  -8  -7   41.19    1.27
   3  -8  -7   44.65    1.36
  -3   8   7   42.42    1.43
  -3   8   7   42.32    1.33
   3  -8  -6   82.19    1.96
  -3   8   6   86.72    2.28
   3  -8  -6   85.00    2.09
  -3   8   6   84.50    2.21
  -3   8   5   23.68    1.03
   3  -8  -5   26.94    1.18
   3  -8  -5   25.57    1.17
   3  -8  -5   26.41    1.17
   3  -8  -5   29.50    1.33
  -3   8   5   27.86    1.41
   3  -8  -5   24.78    0.96
  -3   8   5   28.05    1.42
   3  -8  -4   10.52    0.86
   3  -8  -4    8.80    0.68
   3  -8  -4   10.38    0.86
   3  -8  -4   10.06    0.82
  -3   8   4    9.04    0.72
  -3   8   4    9.75    0.89
   3  -8  -4   11.98    0.94
   3  -8  -4    9.62    0.75
  -3   8   4   10.68    0.97
   3  -8  -3  128.78    2.91
   3  -8  -3  133.93    3.00
   3  -8  -3  123.88    2.55
  -3   8   3  121.49    2.48
  -3   8   3  129.70    2.86
  -3   8   3  129.70    2.98
   3  -8  -3  131.86    3.01
  -3   8   3  130.57    3.18
  -3   8   2   76.96    2.19
   3  -8  -2   77.58    2.26
   3  -8  -2   78.67    2.32
  -3   8   2   76.67    2.11
  -3   8   2   74.65    2.28
   3  -8  -2   78.09    2.33
  -3   8   2   75.95    2.40
   3  -8  -1  156.11    3.14
  -3   8   1  154.30    3.02
  -3   8   1  153.41    3.24
   3  -8  -1  154.29    3.15
   3  -8  -1  154.82    3.05
  -3   8   1  151.62    3.20
   3  -8   0   36.71    1.38
   3  -8   0   38.71    1.48
   3  -8   0   32.58    1.21
  -3   8   0   38.06    1.47
   3  -8   0   34.08    1.17
  -3   8   0   39.36    1.61
   3  -8   0   38.47    1.50
  -3   8   0   37.47    1.47
   3  -8   1    3.70    0.47
   3  -8   1    3.36    0.41
  -3   8  -1    3.74    0.50
   3  -8   1    3.50    0.40
   3  -8   1    3.70    0.49
  -3   8  -1    3.88    0.56
  -3   7   9    4.05    0.54
   3  -7  -9    4.18    0.50
   3  -7  -9    3.74    0.46
  -3   7   9    3.34    0.45
  -3   7   8  199.13    3.68
   3  -7  -8  201.11    3.53
   3  -7  -8  189.24    3.03
   3  -7  -8  204.84    3.60
  -3   7   8  206.45    3.77
  -3   7   8  199.07    3.50
  -3   7   8  190.06    3.14
  -3   7   7    7.53    0.88
   3  -7  -7    7.21    0.85
   3  -7  -7    7.32    0.70
   3  -7  -7    7.59    0.87
  -3   7   7    7.52    0.90
  -3   7   7    7.27    0.84
  -3   7   7    6.72    0.73
  -3   7   6    0.08    0.41
   3  -7  -6    0.54    0.37
   3  -7  -6    0.16    0.41
   3  -7  -6    0.43    0.33
   3  -7  -6    0.45    0.45
  -3   7   6    0.67    0.50
   3  -7  -6    0.17    0.38
  -3   7   6    1.80    0.55
  -3   7   6    0.07    0.34
  -3   7   5  115.26    3.40
   3  -7  -5  114.19    3.18
   3  -7  -5  113.05    3.23
   3  -7  -5  112.87    3.19
   3  -7  -5  112.52    3.30
  -3   7   5  115.54    3.63
   3  -7  -5  107.39    3.24
  -3   7   5  116.40    3.59
  -3   7   4   28.76    1.75
   3  -7  -4   28.85    1.76
   3  -7  -4   29.58    1.74
   3  -7  -4   28.62    1.65
   3  -7  -4   29.82    1.75
  -3   7   4   29.19    1.69
   3  -7  -4   28.69    1.78
  -3   7   4   27.91    1.86
  -3   7   4   27.25    1.84
  -3   7   3  332.72    5.83
  -3   7   3  324.53    6.19
   3  -7  -3  334.30    5.94
   3  -7  -3  314.37    5.14
   3  -7  -3  334.01    5.87
   3  -7  -3  326.44    5.58
  -3   7   3  326.48    5.58
  -3   7   3  336.85    5.96
  -3   7   3  331.67    6.39
   3  -7  -3  328.09    5.93
   3  -7  -2  480.56    7.23
   3  -7  -2  467.93    6.98
   3  -7  -2  459.00    6.34
  -3   7   2  461.73    6.89
   3  -7  -2  442.94    5.98
  -3   7   2  472.75    7.26
  -3   7   2  454.85    7.23
   3  -7  -2  467.19    7.11
  -3   7   2  458.80    6.65
  -3   7   2  459.75    7.47
  -3   7   1   43.40    1.98
   3  -7  -1   47.02    2.28
   3  -7  -1   44.61    2.15
   3  -7  -1   42.32    2.03
  -3   7   1   44.85    2.22
   3  -7  -1   45.23    2.00
  -3   7   1   44.05    2.27
  -3   7   1   43.02    2.17
   3  -7  -1   47.16    2.27
  -3   7   1   47.35    2.42
   3  -7   0  229.28    4.75
   3  -7   0  226.08    4.59
  -3   7   0  216.68    4.56
   3  -7   0  217.43    4.58
  -3   7   0  216.87    4.78
   3  -7   0  223.81    4.46
  -3   7   0  226.83    5.05
   3  -7   0  222.42    4.72
  -3   7   0  220.12    4.97
   3  -7   1    2.42    0.61
   3  -7   1    1.19    0.51
   3  -7   1    1.52    0.50
  -3   7  -1    1.08    0.53
   3  -7   1    1.19    0.49
  -3   7  -1    2.13    0.64
  -3   7  -1    1.72    0.48
   3  -7   1    1.23    0.57
  -3   7  -1    1.23    0.59
   3  -7   2  455.64    5.29
   3  -7   2  438.52    5.56
   3  -7   2  454.40    6.03
  -3   7  -2  451.21    6.36
   3  -7   2  445.68    5.89
  -3   7  -2  452.56    6.47
   3  -7   2  443.53    5.72
  -3   7  -2  439.83    5.99
   3  -7   3    3.61    0.51
   3  -7   3    4.07    0.62
  -3   7  -3    4.38    0.69
   3  -7   3    4.33    0.63
  -3   7  -3    4.58    0.72
   3  -7   3    3.87    0.57
  -3   7  -3    4.97    0.64
   3  -7   4   11.69    0.82
  -3   7  -4   11.00    0.84
   3  -7   4   10.52    0.77
  -3   7  -4   10.55    0.80
  -3   6  10  145.28    3.01
   3  -6 -10  131.23    2.40
   3  -6 -10  141.58    2.76
   3  -6 -10  109.01    2.17
   3  -6 -10  122.24    2.38
  -3   6  10  143.83    2.86
  -3   6   9   49.11    2.10
   3  -6  -9   47.91    1.86
   3  -6  -9   49.60    1.93
   3  -6  -9   47.45    1.87
   3  -6  -9   47.05    1.74
  -3   6   9   50.82    1.92
  -3   6   9   45.33    1.70
  -3   6   9   48.75    2.00
  -3   6   8    1.17    0.55
   3  -6  -8    0.71    0.50
   3  -6  -8    1.07    0.48
   3  -6  -8    1.17    0.51
   3  -6  -8    1.41    0.46
  -3   6   8    1.28    0.48
  -3   6   8    0.86    0.46
  -3   6   8    1.21    0.56
  -3   6   7   40.06    2.23
   3  -6  -7   33.75    1.73
   3  -6  -7   35.98    2.00
   3  -6  -7   34.03    1.83
   3  -6  -7   39.55    2.13
  -3   6   7   37.98    2.15
  -3   6   7   36.40    2.03
  -3   6   7   37.74    2.05
  -3   6   6   24.45    1.85
   3  -6  -6   25.43    1.61
   3  -6  -6   25.49    1.66
   3  -6  -6   24.51    1.71
   3  -6  -6   24.30    1.56
   3  -6  -6   25.55    1.79
  -3   6   6   24.19    1.84
   3  -6  -6   22.44    1.66
  -3   6   6   23.61    1.78
  -3   6   6   24.32    1.70
  -3   6   5   22.91    1.81
   3  -6  -5   24.23    1.67
   3  -6  -5   23.61    1.68
   3  -6  -5   22.21    1.70
  -3   6   5   21.39    1.77
   3  -6  -5   22.81    1.72
  -3   6   5   21.44    1.75
  -3   6   5   21.93    1.65
  -3   6   4   87.27    3.47
   3  -6  -4   90.34    3.36
   3  -6  -4   88.44    3.23
   3  -6  -4   83.78    3.10
   3  -6  -4   90.79    3.32
  -3   6   4   89.96    3.23
  -3   6   4   86.19    3.54
   3  -6  -4   87.34    3.33
  -3   6   4   90.79    3.60
  -3   6   4   87.07    3.14
   3  -6  -3   20.59    1.66
   3  -6  -3   19.41    1.49
   3  -6  -3   19.68    1.59
   3  -6  -3   23.50    1.71
   3  -6  -3   19.78    1.56
  -3   6   3   18.53    1.51
  -3   6   3   19.19    1.59
  -3   6   3   20.46    1.79
   3  -6  -3   20.61    1.66
  -3   6   3   20.32    1.79
   3  -6  -2  241.59    5.55
   3  -6  -2  220.31    4.70
   3  -6  -2  230.43    5.31
   3  -6  -2  219.21    5.12
   3  -6  -2  223.61    5.00
  -3   6   2  238.43    5.40
   3  -6  -2  223.84    4.91
  -3   6   2  242.34    5.67
   3  -6  -2  226.98    5.41
  -3   6   2  231.14    5.81
  -3   6   2  226.49    5.71
   3  -6  -1   17.24    1.55
   3  -6  -1   18.10    1.52
   3  -6  -1   17.99    1.52
   3  -6  -1   16.68    1.36
  -3   6   1   17.71    1.63
  -3   6   1   16.84    1.53
   3  -6  -1   16.33    1.39
  -3   6   1   18.32    1.65
   3  -6  -1   15.70    1.46
  -3   6   1   16.13    1.63
   3  -6   0  873.39   10.41
   3  -6   0  854.29   10.04
   3  -6   0  892.96   10.45
  -3   6   0  881.17   10.80
  -3   6   0  885.26   10.95
   3  -6   0  874.25   10.10
  -3   6   0  873.10   11.09
   3  -6   0  866.43   10.36
   3  -6   0  863.37   10.65
  -3   6   0  862.81   11.14
   3  -6   1   58.10    2.67
   3  -6   1   54.87    2.49
   3  -6   1   51.60    2.56
  -3   6  -1   58.24    2.81
   3  -6   1   60.38    2.69
  -3   6  -1   61.47    2.96
  -3   6  -1   55.14    2.65
   3  -6   1   56.38    2.61
   3  -6   1   58.95    2.75
  -3   6  -1   57.59    2.86
   3  -6   2  135.31    3.79
   3  -6   2  141.68    3.69
   3  -6   2  136.70    4.05
  -3   6  -2  138.14    4.25
   3  -6   2  137.25    3.95
   3  -6   2  134.31    3.44
  -3   6  -2  135.19    3.74
  -3   6  -2  135.37    4.26
  -3   6  -2  133.64    3.79
   3  -6   2  135.26    3.81
   3  -6   2  134.67    4.04
  -3   6  -2  130.39    4.13
   3  -6   3  142.17    3.58
   3  -6   3  145.49    3.36
   3  -6   3  145.28    4.01
   3  -6   3  136.76    3.45
  -3   6  -3  142.11    4.16
   3  -6   3  149.19    3.99
  -3   6  -3  148.41    3.83
  -3   6  -3  149.77    4.29
   3  -6   3  147.96    3.72
   3  -6   3  147.79    3.97
  -3   6  -3  142.68    4.04
   3  -6   3  133.71    3.43
   3  -6   4    0.09    0.47
   3  -6   4    0.36    0.33
  -3   6  -4   -0.10    0.47
   3  -6   4   -0.25    0.44
  -3   6  -4   -0.23    0.45
  -3   6  -4    0.66    0.54
   3  -6   4    0.68    0.39
   3  -6   4    0.11    0.39
  -3   6  -4   -0.03    0.43
   3  -6   4    0.47    0.35
   3  -6   5   45.86    1.88
  -3   6  -5   47.53    2.05
   3  -6   5   47.35    1.85
   3  -6   5   45.53    1.74
  -3   6  -5   44.67    1.61
  -3   6  -5   47.09    1.89
  -3   6  -5   46.48    1.93
   3  -6   5   45.53    1.77
  -3   6  -5   44.20    1.67
   3  -6   5   42.18    1.62
   3  -6   6    3.52    0.54
   3  -6   6    4.16    0.53
  -3   6  -6    3.55    0.56
   3  -6   6    3.12    0.47
  -3   6  -6    3.79    0.50
  -3   6  -6    3.00    0.45
   3  -6   6    2.59    0.37
  -3   5  11  243.01    3.76
   3  -5 -11  241.32    3.64
   3  -5 -11  237.81    3.51
  -3   5  11  245.07    3.80
  -3   5  10    0.28    0.43
   3  -5 -10    0.60    0.33
   3  -5 -10    0.55    0.43
   3  -5 -10    0.97    0.38
   3  -5 -10    1.00    0.48
  -3   5  10    0.05    0.42
  -3   5  10    0.43    0.50
  -3   5   9   36.88    2.09
   3  -5  -9   33.68    1.80
   3  -5  -9   33.32    1.86
   3  -5  -9   32.25    1.77
   3  -5  -9   35.84    1.88
  -3   5   9   34.61    1.77
  -3   5   9   31.91    1.75
  -3   5   9   34.88    2.02
  -3   5   8   86.87    3.39
   3  -5  -8   88.18    3.12
   3  -5  -8   85.30    3.12
   3  -5  -8   86.54    3.14
  -3   5   8   88.37    3.18
  -3   5   8   89.30    3.09
  -3   5   8   89.72    3.10
   3  -5  -8   88.58    3.06
  -3   5   8   88.99    3.35
  -3   5   7   65.02    3.05
   3  -5  -7   60.77    2.51
   3  -5  -7   62.33    2.77
   3  -5  -7   61.09    2.72
   3  -5  -7   62.34    2.79
   3  -5  -7   60.51    2.57
  -3   5   7   63.95    2.92
  -3   5   7   63.95    2.74
  -3   5   7   62.03    2.78
  -3   5   7   63.89    2.92
  -3   5   6  588.92    9.22
   3  -5  -6  558.16    7.73
   3  -5  -6  566.98    8.05
   3  -5  -6  580.38    8.46
   3  -5  -6  569.96    8.13
   3  -5  -6  596.76    8.72
   3  -5  -6  549.26    7.67
  -3   5   6  561.40    8.79
   3  -5  -6  544.19    8.31
  -3   5   6  584.61    8.77
  -3   5   6  577.37    8.75
  -3   5   5  173.76    5.01
  -3   5   5  169.37    4.91
   3  -5  -5  171.11    4.56
   3  -5  -5  174.56    4.46
   3  -5  -5  172.34    4.61
   3  -5  -5  173.28    4.69
   3  -5  -5  168.14    4.31
   3  -5  -5  172.80    4.69
  -3   5   5  175.60    4.90
  -3   5   5  172.03    4.74
   3  -5  -4   77.25    3.10
   3  -5  -4   82.75    3.14
   3  -5  -4   75.76    3.00
   3  -5  -4   75.97    3.07
   3  -5  -4   74.28    3.08
  -3   5   4   68.17    5.09
  -3   5   4   76.51    3.29
  -3   5   4   78.30    3.36
   3  -5  -3  417.37    7.21
   3  -5  -3  406.41    6.75
   3  -5  -3  423.25    7.09
   3  -5  -3  397.30    6.84
   3  -5  -3  415.69    6.99
  -3   5   3  433.08   12.39
  -3   5   3  422.47   12.18
  -3   5   3  416.75   12.13
  -3   5   3  420.40   12.30
   3  -5  -3  405.34   12.95
   3  -5  -3  416.81   12.16
  -3   5   3  430.02   12.26
   3  -5  -3  419.02   12.74
   3  -5  -3  444.28   12.73
   3  -5  -3  411.96   12.20
   3  -5  -3  398.05   11.95
  -3   5   3  439.49    7.93
   3  -5  -3  414.91    7.25
   3  -5  -3  422.00   13.14
  -3   5   3  439.38   12.71
  -3   5   3  399.93   12.38
  -3   5   3  387.62   11.58
  -3   5   3  407.05    7.60
  -3   5   3  420.03    7.17
   3  -5  -2  220.07    5.24
   3  -5  -2  211.21    4.73
   3  -5  -2  223.05    5.17
   3  -5  -2  210.32    5.06
   3  -5  -2  210.28    4.87
  -3   5   2  222.89    5.17
   3  -5  -2  213.52    4.82
  -3   5   2  219.05    8.69
  -3   5   2  221.41    8.77
  -3   5   2  209.08    8.61
  -3   5   2  213.36    8.68
   3  -5  -2  213.52    9.56
   3  -5  -2  213.96    8.62
   3  -5  -2  210.47    8.98
   3  -5  -2  222.23    8.96
   3  -5  -2  221.61    8.85
  -3   5   2  212.29    5.24
  -3   5   2  226.72    8.92
  -3   5   2  227.34    5.68
   3  -5  -2  218.91    5.24
   3  -5  -2  203.62    9.09
  -3   5   2  225.46    9.01
  -3   5   2  192.18    8.60
   3  -5  -2  207.25    5.16
   3  -5  -2  221.82    8.72
  -3   5   2  220.96    5.62
   3  -5  -1   15.89    1.46
   3  -5  -1   16.14    1.43
   3  -5  -1   18.91    1.58
   3  -5  -1   17.55    1.42
  -3   5   1   16.12    1.49
   3  -5  -1   16.68    1.43
  -3   5   1   14.55    2.36
  -3   5   1   19.22    2.61
  -3   5   1   18.56    2.50
   3  -5  -1   17.19    2.51
  -3   5   1   19.49    2.60
   3  -5  -1   17.03    2.76
   3  -5  -1   15.85    2.63
   3  -5  -1   16.88    2.54
  -3   5   1   16.40    1.54
  -3   5   1   17.50    2.57
   3  -5  -1   18.02    2.54
   3  -5  -1   18.78    1.56
   3  -5  -1   12.53    2.51
  -3   5   1   12.97    2.25
   3  -5  -1   14.36    2.39
  -3   5   1   15.15    2.48
   3  -5  -1   15.40    1.44
  -3   5   1   16.92    1.60
   3  -5   0   99.98    3.52
   3  -5   0   92.91    3.36
   3  -5   0   94.51    3.47
  -3   5   0   98.49    3.63
   3  -5   0   96.77    3.40
  -3   5   0   89.82    5.66
  -3   5   0   97.36    5.89
  -3   5   0  107.73    6.18
  -3   5   0   87.66    5.61
   3  -5   0   93.68    5.70
   3  -5   0   86.74    5.83
   3  -5   0   87.30    5.71
   3  -5   0   85.71    5.59
  -3   5   0   98.26    3.71
  -3   5   0   97.75    6.03
   3  -5   0   90.42    5.63
   3  -5   0   93.48    3.41
  -3   5   0   89.81    6.00
   3  -5   0   93.15    3.48
   3  -5   1 1151.16   11.90
   3  -5   1 1185.00   11.66
   3  -5   1 1205.61   12.47
  -3   5  -1 1231.49   13.00
   3  -5   1 1171.93   11.97
  -3   5  -1 1232.79   13.28
   3  -5   1 1196.48   12.04
   3  -5   1 1198.30   12.48
   3  -5   1 1132.83   11.81
   3  -5   2  170.69    4.46
   3  -5   2  164.06    4.31
   3  -5   2  170.99    4.76
  -3   5  -2  173.72    5.00
   3  -5   2  172.23    4.64
  -3   5  -2  176.99    4.64
   3  -5   2  171.36    4.63
  -3   5  -2  176.65    5.11
   3  -5   2  164.88    4.42
   3  -5   2  177.38    4.83
   3  -5   2  165.59    4.41
  -3   5  -3  178.83    4.78
   3  -5   3  176.42    4.40
   3  -5   3  173.80    4.75
  -3   5  -3  182.57    5.13
   3  -5   3  172.57    4.65
  -3   5  -3  177.12    5.12
   3  -5   3  177.04    4.45
   3  -5   3  179.07    4.83
   3  -5   3  174.47    4.53
   3  -5   3  167.00    4.62
   3  -5   4   53.20    2.58
  -3   5  -4   54.56    2.80
   3  -5   4   51.23    2.48
  -3   5  -4   56.42    2.53
  -3   5  -4   52.90    2.62
   3  -5   4   53.67    2.60
  -3   5  -4   56.23    2.83
   3  -5   4   52.49    2.31
   3  -5   4   54.32    2.60
   3  -5   4   50.35    2.47
   3  -5   5   16.73    1.40
  -3   5  -5   15.85    1.51
   3  -5   5   15.63    1.35
  -3   5  -5   16.48    1.34
  -3   5  -5   19.98    1.57
   3  -5   5   18.32    1.47
  -3   5  -5   16.50    1.49
   3  -5   5   17.10    1.41
   3  -5   5   16.18    1.39
   3  -5   6  123.37    3.30
  -3   5  -6  121.97    3.58
   3  -5   6  121.26    3.17
  -3   5  -6  122.93    3.27
  -3   5  -6  126.15    3.56
   3  -5   6  122.43    3.42
  -3   5  -6  120.13    3.38
   3  -5   6  125.89    3.25
   3  -5   6  121.81    3.32
   3  -5   7   29.32    1.36
  -3   5  -7   30.14    1.55
   3  -5   7   28.67    1.27
   3  -5   7   29.39    1.42
  -3   5  -7   30.13    1.41
  -3   5  -7   31.16    1.57
   3  -5   7   28.92    1.46
  -3   5  -7   28.01    1.30
   3  -5   7   29.40    1.28
   3  -5   7   30.30    1.47
   3  -5   8    7.75    0.58
  -3   5  -8    9.09    0.69
   3  -5   8    8.57    0.64
   3  -5   8    9.04    0.63
   3  -4 -12    7.73    0.60
   3  -4 -12    7.43    0.60
  -3   4  12    6.98    0.61
  -3   4  11  114.25    2.91
   3  -4 -11  112.07    2.88
   3  -4 -11  115.73    2.89
   3  -4 -11  108.67    2.44
  -3   4  11  116.80    2.89
  -3   4  11  115.62    3.00
  -3   4  10    2.56    0.68
   3  -4 -10    2.65    0.53
   3  -4 -10    2.01    0.68
   3  -4 -10    2.19    0.52
  -3   4  10    2.62    0.57
   3  -4 -10    1.95    0.62
   3  -4 -10    1.67    0.51
  -3   4  10    2.94    0.70
  -3   4  10    1.22    0.58
  -3   4   9  250.60    5.63
   3  -4  -9  232.46    4.86
   3  -4  -9  251.10    5.45
   3  -4  -9  236.24    5.01
  -3   4   9  243.23    4.95
   3  -4  -9  253.95    5.37
   3  -4  -9  262.54    4.93
  -3   4   9  247.06    5.38
  -3   4   9  243.62    5.57
  -3   4   8   14.29    1.48
   3  -4  -8   12.68    1.28
   3  -4  -8   12.42    1.32
   3  -4  -8   14.85    1.40
  -3   4   8   14.56    1.31
   3  -4  -8   13.17    1.32
  -3   4   8   14.11    1.33
  -3   4   8   12.82    1.35
  -3   4   8   13.99    1.47
  -3   4   7   25.66    1.97
   3  -4  -7   21.56    1.68
   3  -4  -7   22.73    1.74
   3  -4  -7   22.04    1.72
   3  -4  -7   24.57    1.76
  -3   4   7   22.34    1.69
  -3   4   7   23.09    1.70
  -3   4   7   23.28    1.83
  -3   4   6  275.25    6.26
   3  -4  -6  262.18    5.45
   3  -4  -6  271.80    5.76
   3  -4  -6  277.48    5.79
   3  -4  -6  279.39    5.92
  -3   4   6  291.75   10.18
  -3   4   6  285.70   10.14
  -3   4   6  290.91   10.22
   3  -4  -6  280.61   11.30
   3  -4  -6  271.38   10.08
   3  -4  -6  269.75   10.18
   3  -4  -6  276.53   10.18
   3  -4  -6  275.55    5.62
   3  -4  -6  293.85   10.42
  -3   4   6  288.64   10.05
  -3   4   6  279.51    6.03
   3  -4  -6  261.95    5.73
  -3   4   6  281.73   10.10
  -3   4   6  255.28    8.91
   3  -4  -6  288.78   10.87
  -3   4   6  276.91   10.02
   3  -4  -6  246.26   10.27
  -3   4   6  251.69    9.58
  -3   4   6  278.65   10.46
  -3   4   6  275.67    5.83
  -3   4   6  279.31    6.12
  -3   4   5  298.98    6.39
   3  -4  -5  292.12    5.80
   3  -4  -5  284.07    5.52
   3  -4  -5  285.39    5.75
   3  -4  -5  290.47    5.71
   3  -4  -5  296.13    5.99
   3  -4  -5  307.03   10.21
  -3   4   5  296.79    6.21
   3  -4  -5  287.89    5.93
  -3   4   5  298.29   10.00
   3  -4  -5  296.47   10.35
   3  -4  -5  277.93   10.92
  -3   4   5  294.67    9.93
   3  -4  -5  299.10   10.16
   3  -4  -5  280.60    5.38
   3  -4  -5  295.90   10.06
  -3   4   5  297.72    9.87
  -3   4   5  288.57    9.91
  -3   4   5  285.12    8.89
   3  -4  -5  289.77   10.55
  -3   4   5  295.01   10.05
   3  -4  -5  271.76   10.61
  -3   4   5  257.27    9.56
  -3   4   5  287.11   10.22
  -3   4   5  293.31    6.02
  -3   4   5  305.92   10.03
   3  -4  -4  348.76    6.29
   3  -4  -4  347.11    6.11
   3  -4  -4  356.98    6.29
   3  -4  -4  357.16   10.68
   3  -4  -4  357.02   11.03
   3  -4  -4  352.81    6.31
  -3   4   4  329.03    9.18
  -3   4   4  365.55   10.65
  -3   4   4  363.47   10.65
  -3   4   4  376.53   10.86
  -3   4   4  366.30   10.62
   3  -4  -4  360.82   10.65
   3  -4  -4  359.73   10.71
  -3   4   4  360.80   10.56
   3  -4  -4  352.97   10.56
  -3   4   4  350.86    6.74
   3  -4  -4  363.59   10.84
   3  -4  -4  352.20    6.38
   3  -4  -4  359.64   11.38
  -3   4   4  349.54   10.64
   3  -4  -4  341.93   11.59
  -3   4   4  338.98   10.70
  -3   4   4  342.01   10.75
  -3   4   4  350.54    6.57
  -3   4   3   10.04    1.73
   3  -4  -3   10.31    1.86
  -3   4   3    7.95    1.54
  -3   4   3    9.63    1.79
   3  -4  -3    9.29    1.88
   3  -4  -3   12.96    2.12
   3  -4  -3    8.48    1.67
  -3   4   3   13.39    2.04
   3  -4  -3   10.85    1.83
   3  -4  -3   10.01    1.90
  -3   4   3   11.84    1.93
   3  -4  -3   11.25    1.89
   3  -4  -3    8.68    1.92
  -3   4   3    9.95    1.97
  -3   4   3   11.30    1.95
  -3   4   3    8.36    1.74
  -3   4   3   11.09    1.70
  -3   4   2  458.84   11.37
  -3   4   2  444.21   11.17
  -3   4   2  460.69   11.39
  -3   4   2  454.36   11.34
   3  -4  -2  413.97   12.08
   3  -4  -2  447.12   11.84
   3  -4  -2  453.09   11.61
  -3   4   2  421.93   10.12
   3  -4  -2  447.46   11.38
  -3   4   2  464.65   11.56
   3  -4  -2  442.21   11.19
   3  -4  -2  433.37   11.98
  -3   4   2  431.23   11.33
  -3   4   2  427.86    9.77
  -3   4   2  427.43   11.78
  -3   4   2  416.00   10.73
   3  -4  -2  436.29   11.11
   3  -4  -1   62.53    3.92
  -3   4   1   73.60    4.54
  -3   4   1   75.48    4.58
  -3   4   1   76.82    4.62
   3  -4  -1   72.93    4.51
  -3   4   1   69.24    4.78
   3  -4  -1   74.23    4.85
   3  -4  -1   76.17    5.26
   3  -4  -1   79.71    4.88
  -3   4   1   76.78    4.53
   3  -4  -1   72.48    4.57
  -3   4   1   74.38    4.66
   3  -4  -1   73.48    4.55
   3  -4  -1   70.25    4.81
  -3   4   1   74.73    4.71
  -3   4   1   75.29    4.62
  -3   4   1   74.44    4.26
  -3   4   0    1.40    0.70
  -3   4   0    0.04    0.77
  -3   4   0   -0.07    0.59
   3  -4   0   -0.06    0.56
   3  -4   0    2.24    1.03
   3  -4   0    0.29    0.59
   3  -4   0    2.31    1.07
   3  -4   0    0.16    0.73
  -3   4   0    0.97    0.57
   3  -4   0   -0.60    0.54
  -3   4   0    0.06    1.04
   3  -4   0   -0.05    0.43
  -3   4   0   -0.37    0.43
  -3   4   0    2.49    1.02
  -3   4   0   -0.42    0.67
   3  -4   1    2.74    0.63
  -3   4  -1    1.48    0.79
   3  -4   1    0.26    0.63
  -3   4  -1    1.34    0.83
  -3   4  -1    3.58    1.17
   3  -4   1    2.13    0.84
   3  -4   1    4.05    1.15
   3  -4   1    1.37    0.92
   3  -4   1    0.89    0.69
   3  -4   1    1.95    0.95
  -3   4  -1    2.01    0.72
   3  -4   1    2.54    1.01
  -3   4  -1    5.04    1.86
  -3   4  -1    1.86    0.67
  -3   4  -1    2.74    1.12
  -3   4  -1    2.90    1.07
   3  -4   2  107.26    3.63
   3  -4   2  100.53    3.31
   3  -4   2  106.88    3.31
  -3   4  -2  102.22    6.07
   3  -4   2  120.83    3.82
   3  -4   2   99.92    5.61
   3  -4   2  106.00    5.90
  -3   4  -2  112.55    3.88
   3  -4   2  102.29    3.49
  -3   4  -2  112.35    5.93
  -3   4  -2  106.46    5.74
  -3   4  -2  110.16    3.58
   3  -4   2  110.68    5.85
   3  -4   2  110.47    6.25
   3  -4   2  106.44    5.88
  -3   4  -2  120.63    6.39
   3  -4   2  117.87    6.02
  -3   4  -2  112.19    5.87
   3  -4   2  110.59    3.46
   3  -4   2  104.75    5.71
  -3   4  -2   97.69    5.89
  -3   4  -2  109.26    5.82
   3  -4   2  109.14    3.64
   3  -4   2  106.53    3.55
  -3   4  -2  119.56    6.09
   3  -4   3  223.07    4.86
   3  -4   3  219.99    5.26
   3  -4   3  207.38    8.52
  -3   4  -3  220.18    5.60
   3  -4   3  212.15    5.08
  -3   4  -3  203.55    8.32
  -3   4  -3  204.47    8.21
  -3   4  -3  213.66    8.75
   3  -4   3  203.34    8.10
   3  -4   3  218.82    5.30
   3  -4   3  201.08    8.71
   3  -4   3  202.16    8.29
  -3   4  -3  212.69    8.94
   3  -4   3  207.30    8.18
  -3   4  -3  215.31    8.35
   3  -4   3  220.64    4.88
   3  -4   3  199.45    8.08
   3  -4   3  201.62    8.46
  -3   4  -3  207.55    8.73
  -3   4  -3  207.23    8.24
   3  -4   3  222.80    5.30
   3  -4   3  226.31    5.23
  -3   4  -3  218.01    8.48
  -3   4  -3  215.90    5.26
   3  -4   4  987.92   11.23
   3  -4   4 1017.73   11.15
  -3   4  -4  998.43   11.06
   3  -4   4 1010.05   11.51
   3  -4   4  984.58   10.16
   3  -4   4 1003.61   11.39
   3  -4   4 1004.54   11.34
  -3   4  -4 1008.25   11.76
   3  -4   5    0.18    0.47
   3  -4   5    0.29    0.44
   3  -4   5   -0.11    0.52
  -3   4  -5    0.44    0.39
   3  -4   5    0.13    0.43
   3  -4   5    0.09    0.46
  -3   4  -5    0.23    0.51
   3  -4   6   12.60    1.25
  -3   4  -6   11.78    1.39
   3  -4   6   12.55    1.21
  -3   4  -6   11.88    1.29
  -3   4  -6   13.81    1.44
   3  -4   6   11.57    1.30
   3  -4   6   13.48    1.29
   3  -4   6   13.23    1.34
   3  -4   7  154.02    3.72
  -3   4  -7  152.57    4.23
   3  -4   7  154.51    3.58
  -3   4  -7  155.28    4.06
  -3   4  -7  157.15    4.32
   3  -4   7  151.01    4.06
  -3   4  -7  151.87    3.95
   3  -4   7  158.93    3.86
   3  -4   7  155.63    4.07
   3  -4   8    1.41    0.41
  -3   4  -8   -0.09    0.47
   3  -4   8    0.77    0.43
  -3   4  -8    0.55    0.42
  -3   4  -8    0.55    0.46
   3  -4   8    0.42    0.42
  -3   4  -8    0.76    0.40
   3  -4   8    1.06    0.37
   3  -4   8    0.58    0.44
  -3   4  -9   11.67    0.80
   3  -4   9    9.67    0.70
  -3   4  -9   13.15    0.90
   3  -4   9   12.34    0.86
  -3   4  -9   12.18    0.82
   3  -4   9   12.18    0.85
   3  -3 -12   27.71    1.19
  -3   3  12   26.10    1.10
   3  -3 -12   25.94    1.17
   3  -3 -12   27.44    1.16
  -3   3  12   29.56    1.33
  -3   3  12   26.55    1.16
  -3   3  12   24.91    1.01
   3  -3 -11   16.23    1.22
   3  -3 -11   17.22    1.08
   3  -3 -11   16.24    1.21
   3  -3 -11   18.31    1.25
  -3   3  11   18.70    1.36
  -3   3  11   17.82    1.28
  -3   3  11   17.92    1.23
  -3   3  11   18.69    1.26
  -3   3  10  134.36    3.86
   3  -3 -10  136.36    3.91
   3  -3 -10  133.96    3.42
  -3   3  10  136.86    3.79
   3  -3 -10  138.83    3.93
   3  -3 -10  133.77    3.67
  -3   3  10  137.17    3.98
  -3   3  10  139.21    4.00
  -3   3   9   27.27    1.91
   3  -3  -9   28.66    1.74
   3  -3  -9   26.79    1.88
   3  -3  -9   26.76    1.74
  -3   3   9   27.14    1.87
   3  -3  -9   27.95    1.94
   3  -3  -9   30.72    1.88
  -3   3   9   28.40    1.98
  -3   3   9   27.31    1.96
  -3   3   8  285.42    6.24
   3  -3  -8  268.75    5.58
   3  -3  -8  270.47    5.98
   3  -3  -8  265.99    5.66
  -3   3   8  283.37    6.00
   3  -3  -8  275.98    5.94
   3  -3  -8  268.98    5.66
  -3   3   8  275.82    6.12
  -3   3   8  274.36    6.11
  -3   3   7  456.87   12.80
  -3   3   7  474.42    8.00
   3  -3  -7  474.00   13.47
   3  -3  -7  455.93    7.31
   3  -3  -7  435.69   12.31
   3  -3  -7  444.29    7.49
   3  -3  -7  459.73    7.49
  -3   3   7  433.37   12.49
  -3   3   7  449.77   12.71
   3  -3  -7  447.72   12.96
   3  -3  -7  442.09   13.95
   3  -3  -7  454.84   13.65
   3  -3  -7  466.56   13.24
   3  -3  -7  452.14    7.45
   3  -3  -7  452.82   13.01
  -3   3   7  458.51   12.71
  -3   3   7  429.72   11.66
  -3   3   7  451.96   12.67
   3  -3  -7  475.72   13.83
  -3   3   7  459.57   12.84
   3  -3  -7  439.47   13.05
  -3   3   7  431.13   12.44
  -3   3   7  424.42   12.73
  -3   3   7  461.62    7.84
  -3   3   6 1611.50   14.50
   3  -3  -6 1650.34   24.00
   3  -3  -6 1498.15   12.69
   3  -3  -6 1657.91   13.63
  -3   3   6 1684.01   23.30
   3  -3  -6 1610.55   22.87
   3  -3  -6 1606.38   13.69
   3  -3  -6 1644.06   13.85
  -3   3   6 1655.04   22.99
  -3   3   6 1625.44   22.89
   3  -3  -6 1608.21   25.57
   3  -3  -6 1631.41   23.34
   3  -3  -6 1669.82   23.69
   3  -3  -6 1572.40   13.53
   3  -3  -6 1662.45   23.60
  -3   3   6 1606.50   22.56
  -3   3   6 1528.01   20.80
  -3   3   6 1609.17   22.80
   3  -3  -6 1632.92   24.44
  -3   3   6 1692.44   23.42
   3  -3  -6 1633.56   24.56
  -3   3   6 1608.36   23.22
  -3   3   6 1526.53   23.20
   3  -3  -6 1618.19   24.79
  -3   3   6 1703.05   14.57
   3  -3  -5 1040.42   17.70
  -3   3   5 1071.16   17.52
  -3   3   5 1085.74   17.66
  -3   3   5 1072.74   17.56
   3  -3  -5 1034.41   19.54
   3  -3  -5 1049.35   17.74
   3  -3  -5 1075.55   18.45
   3  -3  -5 1095.99   18.21
   3  -3  -5 1046.35   17.69
  -3   3   5 1074.62   17.54
  -3   3   5 1095.52   16.46
  -3   3   5 1062.77   17.76
   3  -3  -5 1044.70   18.61
  -3   3   5 1074.15   17.74
   3  -3  -5 1067.28   19.20
  -3   3   5 1086.25   18.42
  -3   3   5 1020.38   18.10
  -3   3   4  479.81    9.88
  -3   3   4  491.30   11.26
  -3   3   4  486.46   11.25
  -3   3   4  488.55   11.25
   3  -3  -4  486.83   11.36
   3  -3  -4  494.43   11.59
   3  -3  -4  489.05   11.44
   3  -3  -4  472.10   10.76
  -3   3   4  495.18   11.28
   3  -3  -4  489.49   11.81
  -3   3   4  477.60   10.13
   3  -3  -4  488.19   12.08
  -3   3   4  493.32   11.42
   3  -3  -4  483.82   12.52
  -3   3   4  436.26   11.27
  -3   3   4  470.89   11.63
  -3   3   3  495.48   10.81
  -3   3   3  491.89   10.77
  -3   3   3  493.83   10.83
   3  -3  -3  454.21   10.81
  -3   3   3  490.36   10.82
   3  -3  -3  493.75   10.83
   3  -3  -3  494.62   11.37
  -3   3   3  489.92    9.99
   3  -3  -3  486.70   11.01
   3  -3  -3  486.53   10.88
  -3   3   3  497.49   10.79
   3  -3  -3  473.45   10.64
  -3   3   3  492.26    9.55
   3  -3  -3  504.93   11.84
  -3   3   3  498.83   11.03
   3  -3  -3  506.44   12.43
  -3   3   3  453.12   11.15
  -3   3   3  462.04   10.94
  -3   3   2  184.43    5.59
   3  -3  -2  183.63    7.07
  -3   3   2  192.11    6.50
  -3   3   2  184.74    6.37
  -3   3   2  189.40    6.45
  -3   3   2  200.12    6.64
   3  -3  -2  175.47    6.26
   3  -3  -2  191.88    6.87
  -3   3   2  184.65    6.16
   3  -3  -2  181.61    6.51
   3  -3  -2  174.39    6.31
  -3   3   2  192.94    6.59
   3  -3  -2  180.95    6.34
   3  -3  -2  185.82    6.94
  -3   3   2  183.24    6.52
   3  -3  -2  172.72    7.16
  -3   3   2  181.60    6.87
  -3   3   2  184.29    6.55
  -3   3   1  313.34    8.21
  -3   3   1  343.97    8.58
  -3   3   1  348.01    8.62
  -3   3   1  321.43    8.31
   3  -3  -1  326.26    9.58
   3  -3  -1  334.32    8.36
   3  -3  -1  320.32    8.77
   3  -3  -1  327.44    8.61
  -3   3   1  314.91    8.27
   3  -3  -1  346.93    8.70
  -3   3   1  343.86    8.71
   3  -3  -1  335.64    8.38
   3  -3  -1  319.49    8.94
  -3   3   1  333.40    8.58
  -3   3   1  332.30    7.28
  -3   3   1  342.41    9.38
  -3   3   1  341.06    8.31
   3  -3   0  279.49    7.70
  -3   3   0  273.53    7.64
   3  -3   0  273.44    7.17
   3  -3   0  291.59    7.44
  -3   3   0  273.74    7.66
  -3   3   0  274.02    7.62
  -3   3   0  274.75    7.62
  -3   3   0  280.91    7.75
  -3   3   0  250.74    7.67
   3  -3   0  275.72    7.66
   3  -3   0  267.70    8.86
   3  -3   0  264.42    7.75
   3  -3   0  272.50    7.77
  -3   3   0  268.96    7.74
   3  -3   0  271.89    7.68
   3  -3   0  258.97    7.89
  -3   3   0  278.26    6.60
  -3   3   0  257.72    8.17
  -3   3   0  273.94    6.95
   3  -3   1  510.39   10.66
  -3   3  -1  538.57   10.98
  -3   3  -1  510.12   10.58
  -3   3  -1  551.36   10.96
  -3   3  -1  554.64   11.02
   3  -3   1  503.09   10.54
   3  -3   1  526.58   11.51
   3  -3   1  522.98   11.11
  -3   3  -1  502.80   11.33
   3  -3   1  520.63   10.93
  -3   3  -1  511.84   11.02
   3  -3   1  530.98   10.82
  -3   3  -1  544.96   10.91
   3  -3   1  519.69   10.77
  -3   3  -1  499.20   11.52
   3  -3   2  135.41    5.95
  -3   3  -2  146.82    5.88
  -3   3  -2  138.09    5.81
  -3   3  -2  146.17    5.90
  -3   3  -2  138.93    5.71
   3  -3   2  129.20    5.55
   3  -3   2  136.87    6.08
   3  -3   2  137.73    5.95
   3  -3   2  137.63    5.81
  -3   3  -2  124.92    6.05
  -3   3  -2  130.83    5.80
   3  -3   2  140.94    5.78
  -3   3  -2  134.47    5.61
   3  -3   2  132.13    5.61
  -3   3  -2  134.06    6.12
   3  -3   3  835.36   15.86
  -3   3  -3  894.15   15.55
  -3   3  -3  889.15   15.27
  -3   3  -3  862.40   14.88
   3  -3   3  838.37   14.66
   3  -3   3  857.36   15.88
   3  -3   3  829.57   15.21
   3  -3   3  859.02   15.19
  -3   3  -3  810.89   16.16
  -3   3  -3  848.93   15.51
   3  -3   3  885.32   15.11
  -3   3  -3  847.47   14.74
   3  -3   3  854.18   14.93
  -3   3  -3  756.73   15.06
  -3   3  -3  854.50   14.88
   3  -3   4   52.02    2.46
   3  -3   4   53.10    4.23
   3  -3   4   51.67    3.89
   3  -3   4   49.58    2.37
  -3   3  -4   56.24    4.16
  -3   3  -4   50.81    3.91
  -3   3  -4   54.64    3.97
   3  -3   4   45.63    2.34
  -3   3  -4   49.68    3.81
   3  -3   4   52.33    2.54
   3  -3   4   48.81    3.83
  -3   3  -4   48.83    4.26
   3  -3   4   52.67    3.90
  -3   3  -4   51.25    3.88
   3  -3   4   50.61    3.84
   3  -3   4   48.74    2.50
  -3   3  -4   51.69    4.11
   3  -3   4   50.23    2.48
  -3   3  -4   50.00    2.45
   3  -3   4   52.70    2.53
   3  -3   4   54.23    4.12
   3  -3   5   76.03    3.03
   3  -3   5   78.88    5.43
   3  -3   5   78.14    3.01
  -3   3  -5   75.37    5.44
  -3   3  -5   82.89    3.48
   3  -3   5   76.31    3.10
   3  -3   5   82.61    3.28
  -3   3  -5   76.66    5.46
   3  -3   5   74.06    3.19
  -3   3  -5   74.39    5.06
   3  -3   5   81.11    3.23
  -3   3  -5   79.19    3.20
   3  -3   5   84.63    3.31
   3  -3   6    8.36    1.06
   3  -3   6    8.24    1.02
  -3   3  -6    9.04    1.17
  -3   3  -6    7.62    1.18
   3  -3   6    7.97    1.10
   3  -3   6    7.67    1.09
   3  -3   6    7.41    1.07
   3  -3   6   10.06    1.21
   3  -3   6    8.83    1.16
   3  -3   7   20.78    1.52
   3  -3   7   17.90    1.58
   3  -3   7   20.92    1.45
  -3   3  -7   19.09    1.72
   3  -3   7   17.75    1.50
  -3   3  -7   17.44    1.59
   3  -3   7   21.31    1.70
   3  -3   7   17.84    1.52
   3  -3   7   19.50    1.61
  -3   3  -8   55.84    2.57
  -3   3  -8   52.57    2.61
   3  -3   8   49.00    2.26
   3  -3   8   53.66    2.51
   3  -3   8   50.79    2.25
   3  -3   8   53.74    2.48
  -3   3  -8   49.63    2.10
  -3   3  -9   34.33    1.81
   3  -3   9   34.32    1.59
  -3   3  -9   36.21    1.85
  -3   3  -9   37.28    1.92
   3  -3   9   35.06    1.65
   3  -3   9   35.33    1.54
   3  -3   9   36.18    1.80
   3  -3   9   38.81    1.87
  -3   3  -9   37.57    1.56
  -3   3 -10   13.81    0.85
  -3   3 -10   15.57    0.98
  -3   3 -10   14.76    0.97
   3  -3  10   15.00    0.93
   3  -3  10   15.14    0.95
   3  -2 -12   -0.12    0.28
   3  -2 -12    0.03    0.33
  -3   2  12   -0.01    0.39
   3  -2 -12    0.13    0.27
   3  -2 -12    0.22    0.37
  -3   2  12    0.81    0.42
  -3   2  12    0.31    0.25
   3  -2 -11  111.62    3.15
   3  -2 -11  112.06    3.06
  -3   2  11  113.07    3.25
  -3   2  11  107.66    2.73
   3  -2 -11  110.50    3.14
   3  -2 -11  113.56    3.23
  -3   2  11  116.76    3.42
  -3   2  11  109.97    3.07
  -3   2  11  112.96    2.96
  -3   2  10   11.37    1.14
   3  -2 -10    9.78    1.16
   3  -2 -10   11.33    1.22
   3  -2 -10    9.08    1.04
  -3   2  10   11.05    1.10
  -3   2  10   10.74    1.19
   3  -2 -10    9.68    1.15
  -3   2  10   10.85    1.25
  -3   2  10   10.48    1.18
  -3   2   9   24.80    1.79
   3  -2  -9   24.33    1.85
   3  -2  -9   23.82    1.65
   3  -2  -9   27.39    1.83
  -3   2   9   24.25    1.85
   3  -2  -9   26.89    1.91
   3  -2  -9   23.92    1.77
  -3   2   9   24.82    1.88
  -3   2   9   23.52    1.79
  -3   2   8  620.26    8.95
   3  -2  -8  588.30    8.08
   3  -2  -8  621.01    9.04
   3  -2  -8  593.48    8.34
   3  -2  -8  590.52    8.30
  -3   2   8  627.70    9.10
   3  -2  -8  625.20    8.98
   3  -2  -8  618.50    8.74
  -3   2   8  598.31    9.04
  -3   2   8  610.20    8.92
  -3   2   7   19.73    1.59
  -3   2   7   20.83    2.86
   3  -2  -7   20.40    1.53
   3  -2  -7   21.20    2.75
   3  -2  -7   19.07    1.59
   3  -2  -7   18.31    1.48
  -3   2   7   21.26    2.73
  -3   2   7   21.93    2.77
   3  -2  -7   20.26    3.00
   3  -2  -7   21.97    2.84
   3  -2  -7   20.27    2.75
   3  -2  -7   22.06    2.85
   3  -2  -7   19.93    1.59
   3  -2  -7   21.37    2.88
  -3   2   7   23.72    2.75
  -3   2   7   21.15    2.70
  -3   2   7   19.57    2.55
   3  -2  -7   21.31    2.91
  -3   2   7   22.77    2.78
   3  -2  -7   19.18    1.51
  -3   2   7   24.48    3.12
  -3   2   7   20.78    1.69
  -3   2   7   17.10    1.53
   3  -2  -6  106.10    5.65
  -3   2   6  100.40    5.43
  -3   2   6   97.90    5.40
  -3   2   6   98.56    5.40
   3  -2  -6  106.62    6.29
   3  -2  -6  106.03    5.73
   3  -2  -6  110.21    6.00
   3  -2  -6  110.84    5.96
   3  -2  -6   98.88    5.56
   3  -2  -6  108.08    5.79
  -3   2   6  100.98    5.20
  -3   2   6  101.34    5.44
  -3   2   6  109.51    5.64
   3  -2  -6  103.18    5.87
  -3   2   6  109.85    5.67
   3  -2  -6  102.19    5.60
  -3   2   6  104.65    5.74
  -3   2   6  115.08    5.90
   3  -2  -5  206.88    7.45
  -3   2   5  210.61    7.25
  -3   2   5  202.51    7.16
  -3   2   5  210.48    7.28
   3  -2  -5  213.12    8.28
   3  -2  -5  225.27    7.67
   3  -2  -5  202.40    7.66
   3  -2  -5  218.17    7.72
   3  -2  -5  225.02    7.69
   3  -2  -5  222.64    7.60
  -3   2   5  212.64    6.81
  -3   2   5  219.91    7.36
  -3   2   5  223.78    7.51
   3  -2  -5  218.85    7.91
  -3   2   5  218.92    7.41
  -3   2   5  213.35    7.27
   3  -2  -5  214.07    7.71
  -3   2   5  213.97    7.73
   3  -2  -4  354.75    9.14
   3  -2  -4  341.70    9.81
   3  -2  -4  348.17    9.13
  -3   2   4  341.46    8.60
  -3   2   4  349.93    8.71
  -3   2   4  340.33    8.58
   3  -2  -4  336.40    8.72
   3  -2  -4  349.50    9.59
   3  -2  -4  336.33    8.78
   3  -2  -4  347.81    8.86
  -3   2   4  346.67    7.97
  -3   2   4  345.01    8.63
  -3   2   4  355.15    8.84
   3  -2  -4  348.48    9.35
  -3   2   4  340.07    8.68
   3  -2  -4  370.07    9.81
  -3   2   4  326.15    9.02
  -3   2   4  351.03    9.32
  -3   2   4  340.29    8.29
   3  -2  -3  547.16   10.79
  -3   2   3  552.31   10.14
   3  -2  -3  548.12   10.33
  -3   2   3  531.37    9.12
  -3   2   3  539.90    9.06
  -3   2   3  547.25   10.17
  -3   2   3  550.65   10.20
   3  -2  -3  535.07   10.13
   3  -2  -3  574.24   10.18
   3  -2  -3  524.85   10.21
  -3   2   3  564.09   10.25
   3  -2  -3  533.86   10.09
   3  -2  -3  549.27   11.01
  -3   2   3  547.30   10.27
   3  -2  -3  549.92   11.58
  -3   2   3  533.34   10.71
  -3   2   3  533.80   10.92
  -3   2   3  553.95   10.20
   3  -2  -3  561.84   10.86
   3  -2  -2 1025.67   14.26
   3  -2  -2 1013.11   13.41
  -3   2   2 1014.17   13.04
  -3   2   2 1006.16   13.02
  -3   2   2 1004.23   13.01
  -3   2   2 1042.13   13.29
   3  -2  -2 1048.03   13.28
   3  -2  -2 1102.65   14.64
   3  -2  -2 1020.69   13.84
   3  -2  -2 1009.67   13.21
  -3   2   2 1036.43   13.18
   3  -2  -2 1020.97   13.15
  -3   2   2  982.07   11.25
   3  -2  -2  982.73   13.96
  -3   2   2 1010.76   13.17
   3  -2  -2  997.67   15.27
  -3   2   2 1040.11   14.04
  -3   2   2 1038.33   14.67
   3  -2  -1 1313.98   12.68
  -3   2   1 1274.56   13.99
  -3   2   1 1259.37   13.93
  -3   2   1 1270.45   13.99
   3  -2  -1 1280.35   14.87
  -3   2   1 1309.90   14.21
   3  -2  -1 1284.01   16.24
   3  -2  -1 1287.23   14.11
  -3   2   1 1210.48   14.61
   3  -2  -1 1301.47   14.57
   3  -2  -1 1301.91   14.42
  -3   2   1 1342.57   14.57
   3  -2  -1 1317.00   14.21
   3  -2  -1 1247.66   15.03
  -3   2   1 1222.40   11.70
  -3   2   1 1289.77   14.42
  -3   2   1 1268.23   15.72
  -3   2   1 1205.81   14.23
   3  -2   0 1455.25   14.89
   3  -2   0 1506.95   15.63
  -3   2   0 1471.22   14.93
  -3   2   0 1518.62   15.04
  -3   2   0 1531.57   15.20
   3  -2   0 1464.02   18.13
   3  -2   0 1482.69   15.00
  -3   2   0 1502.52   15.01
   3  -2   0 1433.81   15.66
  -3   2   0 1465.34   16.43
   3  -2   0 1470.84   15.24
  -3   2   0 1476.56   15.30
   3  -2   0 1525.62   15.24
  -3   2   0 1536.84   15.26
   3  -2   0 1491.75   15.22
  -3   2   0 1563.15   12.77
  -3   2   0 1457.70   16.80
  -3   2   0 1543.69   14.84
   3  -2   0 1411.08   15.11
   3  -2   1  615.52   10.58
   3  -2   1  646.50    9.72
  -3   2  -1  622.88    9.98
  -3   2  -1  647.71    9.96
  -3   2  -1  649.15   10.00
   3  -2   1  639.54    9.94
   3  -2   1  650.55   10.73
   3  -2   1  654.81   10.49
  -3   2  -1  640.65   11.36
   3  -2   1  631.62   10.09
  -3   2  -1  623.22   10.24
   3  -2   1  642.27    9.97
  -3   2  -1  642.22    9.94
   3  -2   1  672.19   10.26
  -3   2  -1  636.12    9.91
  -3   2  -1  631.99   11.22
  -3   2  -1  647.44    8.48
   3  -2   2  751.97   12.65
  -3   2  -2  777.08   11.79
  -3   2  -2  782.72   11.65
  -3   2  -2  792.68   11.56
  -3   2  -2  776.71   11.45
   3  -2   2  747.02   11.26
  -3   2  -2  724.97   12.81
   3  -2   2  794.66   11.91
  -3   2  -2  729.12   11.66
   3  -2   2  768.70   11.45
  -3   2  -2  769.63   11.36
   3  -2   2  769.27   11.51
  -3   2  -2  751.75   12.54
   3  -2   2  775.87   12.00
   3  -2   2  752.25   12.13
   3  -2   3  574.87   11.87
  -3   2  -3  582.76   10.46
  -3   2  -3  590.33   11.13
  -3   2  -3  568.43   10.44
  -3   2  -3  587.75   10.65
   3  -2   3  581.33   10.64
  -3   2  -3  559.17   12.02
   3  -2   3  586.91   10.88
   3  -2   3  564.73   10.50
   3  -2   3  584.42   10.63
  -3   2  -3  600.98   10.65
   3  -2   3  586.24   10.69
  -3   2  -3  559.83   11.29
  -3   2  -3  595.39   10.89
   3  -2   3  605.70   11.21
   3  -2   4  557.00   12.58
  -3   2  -4  586.39   11.96
  -3   2  -4  568.06   11.43
  -3   2  -4  579.62   11.43
   3  -2   4  562.63   11.14
  -3   2  -4  564.59   11.21
   3  -2   4  581.96   11.56
  -3   2  -4  519.76   12.43
   3  -2   4  579.47   11.34
   3  -2   4  570.92   11.22
  -3   2  -4  499.46   10.53
   3  -2   4  581.64   11.36
  -3   2  -4  540.74   11.62
  -3   2  -4  559.39   11.25
   3  -2   4  546.87   11.51
   3  -2   5   37.65    3.58
  -3   2  -5   41.48    3.78
  -3   2  -5   41.80    3.45
  -3   2  -5   41.49    3.39
  -3   2  -5   41.01    3.32
   3  -2   5   45.05    3.43
  -3   2  -5   40.11    3.24
   3  -2   5   42.77    3.26
   3  -2   5   40.35    3.22
  -3   2  -5   42.69    3.29
   3  -2   5   41.05    3.27
   3  -2   5   43.18    3.47
  -3   2  -5   37.57    3.29
  -3   2  -5   40.49    3.26
   3  -2   5   39.95    3.19
   3  -2   6   94.38    3.21
   3  -2   6   96.90    5.93
   3  -2   6   90.01    3.41
   3  -2   6   98.56    3.53
  -3   2  -6   87.86    5.86
  -3   2  -6   96.84    5.95
   3  -2   6   92.87    3.57
   3  -2   6  100.69    3.56
   3  -2   6   91.22    3.43
  -3   2  -7   61.11    2.95
   3  -2   7   62.01    2.88
   3  -2   7   60.60    2.85
   3  -2   7   62.20    2.97
   3  -2   7   63.98    2.86
   3  -2   7   62.96    2.90
  -3   2  -7   62.92    2.77
  -3   2  -8  117.91    4.04
   3  -2   8  114.77    3.85
   3  -2   8  113.61    3.94
   3  -2   8  108.74    3.72
   3  -2   8  115.01    3.70
   3  -2   8  119.71    3.87
  -3   2  -8  119.07    3.73
   3  -2   9    0.03    0.33
  -3   2  -9    1.02    0.57
  -3   2  -9    0.23    0.52
   3  -2   9    0.45    0.51
   3  -2   9    1.31    0.56
   3  -2   9    1.09    0.59
   3  -2   9    0.77    0.48
   3  -2   9    0.53    0.47
  -3   2  -9    0.60    0.48
   3  -2  10   34.59    1.41
  -3   2 -10   39.49    1.93
  -3   2 -10   38.89    1.89
   3  -2  10   38.40    1.80
   3  -2  10   36.75    1.73
   3  -2  10   38.19    1.86
   3  -2  10   37.60    1.54
   3  -2  10   39.07    1.78
  -3   2 -10   39.13    1.73
  -3   2 -11   55.42    1.72
   3  -2  11   50.37    1.49
   3  -2  11   47.72    1.40
  -3   2 -11   50.61    1.54
   3  -2  11   42.51    1.29
  -3   2 -11   45.16    1.30
   3  -1 -12    0.24    0.21
   3  -1 -12    0.53    0.43
  -3   1  12    0.03    0.37
  -3   1  12    0.53    0.33
   3  -1 -12   -0.16    0.22
   3  -1 -12   -0.21    0.38
  -3   1  12    0.31    0.33
   3  -1 -11   26.89    1.55
   3  -1 -11   26.96    1.64
   3  -1 -11   27.28    1.49
  -3   1  11   28.66    1.73
  -3   1  11   27.53    1.52
   3  -1 -11   27.52    1.56
   3  -1 -11   27.53    1.70
  -3   1  11   28.10    1.73
   3  -1 -10  223.88    5.08
   3  -1 -10  238.29    5.33
   3  -1 -10  237.65    4.94
  -3   1  10  232.97    5.37
  -3   1  10  228.30    4.96
   3  -1 -10  230.45    5.11
   3  -1 -10  234.76    5.36
  -3   1  10  237.37    5.46
  -3   1  10  238.73    4.93
  -3   1   9  225.80    5.10
   3  -1  -9  227.82    5.45
   3  -1  -9  229.54    5.42
   3  -1  -9  217.79    5.07
  -3   1   9  223.07    5.21
   3  -1  -9  233.78    5.47
   3  -1  -9  224.11    5.48
  -3   1   9  221.48    5.52
  -3   1   9  235.07    5.69
  -3   1   9  225.83    5.19
  -3   1   8   82.64    3.13
   3  -1  -8   78.23    5.35
   3  -1  -8   85.51    3.36
   3  -1  -8   78.13    2.99
   3  -1  -8   82.82    3.25
  -3   1   8   84.74    3.41
  -3   1   8   83.74    5.82
  -3   1   8   73.84    5.07
   3  -1  -8   86.01    3.33
   3  -1  -8   84.90    3.33
  -3   1   8   89.07    3.47
  -3   1   8   84.17    3.22
   3  -1  -7  297.03    9.87
   3  -1  -7  296.09    6.01
   3  -1  -7  273.01    5.49
  -3   1   7  287.37    9.65
  -3   1   7  301.38    9.86
   3  -1  -7  278.90   10.60
   3  -1  -7  288.27   10.60
  -3   1   7  281.83    9.94
  -3   1   7  303.13    9.94
   3  -1  -7  297.29   10.15
   3  -1  -7  288.71    9.92
  -3   1   7  289.97    9.30
   3  -1  -7  282.49    9.84
  -3   1   7  297.57    9.77
  -3   1   7  289.09    9.62
   3  -1  -7  299.97   10.40
   3  -1  -7  297.42    5.96
  -3   1   7  292.46    9.70
   3  -1  -7  294.04    5.93
  -3   1   7  295.57    9.62
  -3   1   7  297.60    6.10
  -3   1   7  310.30    5.95
   3  -1  -6   39.93    3.46
  -3   1   6   39.95    3.51
  -3   1   6   42.03    3.44
  -3   1   6   38.48    3.31
   3  -1  -6   42.45    3.90
   3  -1  -6   42.72    3.87
   3  -1  -6   38.29    3.31
  -3   1   6   44.35    3.55
   3  -1  -6   37.42    3.36
  -3   1   6   45.42    3.38
   3  -1  -6   40.12    3.45
  -3   1   6   41.41    3.40
  -3   1   6   43.18    3.44
   3  -1  -6   37.95    3.48
  -3   1   6   39.78    3.33
  -3   1   6   39.96    3.40
   3  -1  -6   42.49    3.60
   3  -1  -5  573.27   11.85
  -3   1   5  530.60   11.42
  -3   1   5  557.85   11.21
  -3   1   5  543.11   11.07
  -3   1   5  543.61   11.07
   3  -1  -5  525.99   12.18
   3  -1  -5  533.55   11.33
   3  -1  -5  537.16   11.43
   3  -1  -5  546.76   11.63
   3  -1  -5  558.31   11.62
  -3   1   5  545.58   10.51
   3  -1  -5  520.78   11.20
  -3   1   5  544.14   11.04
  -3   1   5  545.90   11.11
   3  -1  -5  549.03   11.89
  -3   1   5  540.13   11.07
  -3   1   5  532.75   11.37
   3  -1  -5  555.12   11.07
   3  -1  -4  389.28    9.06
  -3   1   4  373.18    8.59
  -3   1   4  360.55    8.18
   3  -1  -4  363.25    9.29
   3  -1  -4  362.29    8.43
   3  -1  -4  373.63    8.89
   3  -1  -4  364.13    8.66
   3  -1  -4  380.48    8.66
  -3   1   4  384.09    7.88
   3  -1  -4  373.25    8.54
  -3   1   4  357.29    8.10
  -3   1   4  360.06    8.20
   3  -1  -4  381.44    9.08
  -3   1   4  374.75    8.38
  -3   1   4  368.37    8.85
   3  -1  -4  381.35    8.73
  -3   1   4  362.65    8.21
  -3   1   4  361.82    8.20
   3  -1  -3   19.56    1.96
  -3   1   3   19.40    1.78
  -3   1   3   17.97    1.70
  -3   1   3   17.47    1.70
  -3   1   3   17.36    1.68
   3  -1  -3   19.94    1.52
   3  -1  -3   18.83    2.02
   3  -1  -3   18.48    1.75
   3  -1  -3   26.36    2.29
   3  -1  -3   18.23    1.81
   3  -1  -3   18.86    1.78
  -3   1   3   19.04    1.58
   3  -1  -3   18.29    1.75
  -3   1   3   16.72    1.63
  -3   1   3   18.51    1.73
   3  -1  -3   18.14    1.85
  -3   1   3   18.06    1.71
  -3   1   3   24.42    2.20
   3  -1  -3   17.50    1.85
  -3   1   2    4.23    0.72
   3  -1  -2    3.69    0.95
  -3   1   2    5.67    0.89
   3  -1  -2    4.50    0.63
  -3   1   2    4.05    0.79
  -3   1   2    4.36    0.81
  -3   1   2    4.34    0.82
  -3   1   2    4.01    0.81
   3  -1  -2    4.26    0.82
   3  -1  -2    3.68    0.79
   3  -1  -2    4.12    0.89
   3  -1  -2    4.20    0.87
   3  -1  -2    3.79    0.80
  -3   1   2    3.83    0.83
   3  -1  -2    3.01    0.71
   3  -1  -2    4.33    0.91
  -3   1   2    3.43    0.80
   3  -1  -2    4.74    1.07
  -3   1   2    4.53    0.96
   3  -1  -1 2505.77   19.28
   3  -1  -1 2521.51   16.21
  -3   1   1 2616.55   16.77
  -3   1   1 2475.30   16.43
  -3   1   1 2491.17   16.53
  -3   1   1 2454.52   16.49
   3  -1  -1 2581.03   19.36
   3  -1  -1 2578.58   16.96
   3  -1  -1 2598.39   17.81
   3  -1  -1 2593.90   17.35
  -3   1   1 2662.13   13.95
   3  -1  -1 2580.40   17.11
  -3   1   1 2597.65   16.79
   3  -1  -1 2522.39   16.71
   3  -1  -1 2438.54   17.84
  -3   1   1 2536.58   16.96
  -3   1   1 2547.83   18.79
  -3   1   1 2567.81   19.79
  -3   1   1 2535.68   13.67
   3  -1   0 1806.75   15.12
   3  -1   0 1807.15   15.78
  -3   1   0 1828.25   13.47
  -3   1   0 1793.44   13.33
  -3   1   0 1758.85   13.23
   3  -1   0 1835.66   13.53
   3  -1   0 1791.95   14.30
  -3   1   0 1842.44   16.54
   3  -1   0 1851.63   14.08
   3  -1   0 1848.77   13.90
  -3   1   0 1887.31   13.96
   3  -1   0 1803.83   13.43
  -3   1   0 1900.00   10.60
  -3   1   0 1752.70   14.43
  -3   1   0 1781.37   16.03
  -3   1   0 1753.61   13.28
   3  -1   1    1.00    0.50
  -3   1  -1    0.60    0.41
  -3   1  -1    0.39    0.38
  -3   1  -1    0.23    0.37
  -3   1  -1    0.28    0.36
   3  -1   1    0.64    0.54
   3  -1   1    1.01    0.44
   3  -1   1    0.53    0.35
   3  -1   1    1.10    0.48
   3  -1   1    0.77    0.38
  -3   1  -1    1.16    0.47
   3  -1   1    0.99    0.45
  -3   1  -1    0.85    0.62
  -3   1  -1    0.64    0.36
   3  -1   1    0.43    0.39
  -3   1  -1    0.75    0.51
  -3   1  -1    1.47    0.46
  -3   1  -1    0.19    0.23
   3  -1   2   50.68    3.00
   3  -1   2   49.56    2.44
  -3   1  -2   51.59    2.51
  -3   1  -2   52.20    2.48
  -3   1  -2   50.82    2.40
   3  -1   2   54.99    2.51
   3  -1   2   52.49    2.56
  -3   1  -2   51.44    3.03
   3  -1   2   50.22    2.45
   3  -1   2   53.84    2.50
   3  -1   2   49.58    2.41
  -3   1  -2   51.22    2.80
  -3   1  -2   50.29    2.39
  -3   1  -2   51.03    2.42
   3  -1   3   36.68    2.77
   3  -1   3   42.07    2.15
  -3   1  -3   38.04    2.40
   3  -1   3   38.16    2.37
  -3   1  -3   40.63    2.38
  -3   1  -3   42.10    2.39
   3  -1   3   41.62    2.39
  -3   1  -3   39.22    2.30
  -3   1  -3   39.32    2.39
  -3   1  -3   41.28    2.90
   3  -1   3   37.98    2.33
   3  -1   3   38.46    2.30
   3  -1   3   38.24    2.30
  -3   1  -3   41.10    2.34
   3  -1   3   39.28    2.34
  -3   1  -3   37.15    2.46
   3  -1   4 1765.86   20.59
  -3   1  -4 1773.17   17.19
  -3   1  -4 1793.91   17.92
  -3   1  -4 1801.26   17.50
  -3   1  -4 1794.99   18.26
  -3   1  -4 1813.64   17.34
   3  -1   4 1781.22   17.22
   3  -1   4 1763.54   17.41
   3  -1   4 1764.02   17.11
   3  -1   4 1816.11   17.29
  -3   1  -4 1781.13   17.02
   3  -1   4 1796.52   18.05
   3  -1   4 1798.32   17.33
  -3   1  -4 1746.18   17.94
  -3   1  -5  661.73   14.25
   3  -1   5  668.63   13.63
  -3   1  -5  696.91   12.05
  -3   1  -5  665.64   12.20
  -3   1  -5  716.13   12.41
  -3   1  -5  682.89   11.76
   3  -1   5  683.93   11.78
  -3   1  -5  664.88   11.61
   3  -1   5  665.01   11.94
   3  -1   5  704.17   12.07
  -3   1  -5  668.96   13.52
   3  -1   5  686.29   11.74
   3  -1   5  665.78   11.51
  -3   1  -5  655.91   11.45
   3  -1   5  680.86   11.71
  -3   1  -5  642.97   11.68
   3  -1   6   82.68    5.11
  -3   1  -6   82.24    5.10
  -3   1  -6   82.74    5.10
  -3   1  -6   81.18    5.36
   3  -1   7  401.55   11.85
  -3   1  -7  403.66   12.78
   3  -1   7  398.97    7.21
   3  -1   7  401.64    7.02
  -3   1  -7  381.14   11.47
  -3   1  -7  360.41   11.20
   3  -1   7  397.35    7.31
   3  -1   7  388.96    7.01
   3  -1   7  374.50    6.90
   3  -1   7  396.68    6.98
  -3   1  -7  396.40    7.01
   3  -1   8  387.34    7.30
   3  -1   8  387.07    6.98
  -3   1  -8  379.41    6.61
   3  -1   8  388.62    7.42
   3  -1   8  387.32    7.03
   3  -1   8  391.81    7.00
  -3   1  -8  390.32    7.13
   3  -1   9   12.22    1.12
   3  -1   9   14.56    1.45
   3  -1   9   13.58    1.32
  -3   1  -9   11.98    1.21
   3  -1   9   11.11    1.30
   3  -1   9   10.25    1.16
   3  -1   9   12.23    1.24
  -3   1  -9   10.48    1.22
  -3   1 -10    4.58    0.86
  -3   1 -10    5.72    0.94
   3  -1  10    5.07    0.90
   3  -1  10    4.65    0.75
  -3   1 -10    4.57    0.70
   3  -1  10    4.36    0.89
   3  -1  10    5.29    0.76
   3  -1  10    4.80    0.74
  -3   1 -10    4.69    0.82
  -3   1 -11  132.79    3.30
  -3   1 -11  127.21    3.06
   3  -1  11  129.35    3.18
   3  -1  11  126.77    2.76
  -3   1 -11  129.81    2.70
   3  -1  11  129.05    3.24
   3  -1  11  121.60    2.47
   3  -1  11  125.48    2.68
  -3   1 -11  129.65    3.08
  -3   1 -12    1.72    0.37
   3   0 -12   75.47    2.12
  -3   0  12   71.39    2.08
  -3   0  12   69.50    1.82
   3   0 -12   72.46    2.10
  -3   0  12   76.19    2.08
   3   0 -11    6.85    0.86
   3   0 -11    6.19    0.88
   3   0 -11    5.62    0.80
  -3   0  11    5.89    0.88
  -3   0  11   10.95    1.11
   3   0 -11    6.05    0.77
   3   0 -11    5.50    0.95
  -3   0  11    7.61    0.94
  -3   0  11   11.76    1.01
   3   0 -10  181.46    4.45
   3   0 -10  187.32    4.81
   3   0 -10  188.35    4.54
  -3   0  10  190.35    4.81
  -3   0  10  182.74    4.54
   3   0 -10  190.02    4.46
   3   0 -10  183.71    4.81
  -3   0  10  193.82    4.84
  -3   0  10  190.13    4.27
   3   0  -9   12.63    1.33
   3   0  -9   11.56    1.31
   3   0  -9   11.88    1.27
  -3   0   9   10.81    1.30
  -3   0   9   11.22    1.27
   3   0  -9   12.91    1.34
   3   0  -9   12.12    1.38
  -3   0   9   12.20    1.36
  -3   0   9   14.86    1.43
   3   0  -8  134.96    7.07
   3   0  -8  135.36    4.18
   3   0  -8  138.67    4.34
  -3   0   8  120.13    7.03
   3   0  -8  133.05    4.07
  -3   0   8  143.18    4.39
  -3   0   8  133.40    6.80
   3   0  -8  137.11    4.34
  -3   0   8  139.02    4.29
   3   0  -8  137.72    4.17
   3   0  -7  928.61   17.48
  -3   0   7  860.33   17.59
   3   0  -7  877.54   10.27
   3   0  -7  840.30   10.13
  -3   0   7  837.16   16.41
   3   0  -7  857.75   17.00
  -3   0   7  833.14   16.42
   3   0  -7  850.60   18.34
   3   0  -7  862.64   18.07
  -3   0   7  875.88   16.76
   3   0  -7  865.43   17.17
  -3   0   7  859.00   15.93
   3   0  -7  876.90   10.12
  -3   0   7  908.85   10.59
   3   0  -7  867.82   17.12
  -3   0   7  847.42   16.51
  -3   0   7  868.74   16.59
   3   0  -7  875.41   17.59
  -3   0   7  854.43   16.52
   3   0  -7  848.47   10.26
  -3   0   7  830.24   15.53
  -3   0   7  899.10   10.42
   3   0  -6  176.17    7.14
   3   0  -6  179.80    6.31
  -3   0   6  163.57    6.65
  -3   0   6  172.30    6.53
   3   0  -6  164.95    7.46
   3   0  -6  174.05    7.53
  -3   0   6  177.31    6.92
   3   0  -6  167.74    6.96
   3   0  -6  172.97    7.04
   3   0  -6  173.74    7.05
  -3   0   6  174.45    6.86
  -3   0   6  176.17    6.84
   3   0  -6  170.70    7.15
  -3   0   6  168.87    6.73
  -3   0   6  167.89    6.65
  -3   0   6  169.76    6.69
  -3   0   6  166.44    6.75
  -3   0   6  176.60    7.35
   3   0  -5   21.00    2.32
   3   0  -5   21.36    2.13
  -3   0   5   19.73    2.13
  -3   0   5   17.78    2.06
   3   0  -5   19.26    2.31
   3   0  -5   26.11    2.36
  -3   0   5   21.65    2.25
  -3   0   5   18.56    1.98
   3   0  -5   20.08    2.24
   3   0  -5   19.31    2.14
   3   0  -5   19.38    2.17
  -3   0   5   20.10    2.15
  -3   0   5   19.94    2.11
   3   0  -5   20.38    2.31
   3   0  -5   17.92    2.30
  -3   0   5   20.22    2.14
  -3   0   5   18.88    2.06
  -3   0   5   19.50    2.15
  -3   0   5   23.86    2.51
   3   0  -4   38.68    2.81
  -3   0   4   39.90    2.62
  -3   0   4   36.56    2.52
   3   0  -4   37.14    2.84
   3   0  -4   40.95    2.65
  -3   0   4   36.18    2.38
   3   0  -4   36.62    2.64
   3   0  -4   38.05    2.68
   3   0  -4   36.90    2.66
  -3   0   4   38.62    2.59
  -3   0   4   36.77    2.54
   3   0  -4   40.98    2.86
  -3   0   4   39.90    2.88
  -3   0   4   38.13    2.58
  -3   0   4   35.83    2.69
  -3   0   4   40.26    2.55
   3   0  -4   36.12    2.35
   3   0  -3  609.78   10.08
   3   0  -3  498.70    9.02
  -3   0   3  565.46    8.70
  -3   0   3  560.94    8.69
  -3   0   3  553.69    8.60
   3   0  -3  561.02    9.74
   3   0  -3  572.30    8.98
   3   0  -3  576.50    9.08
  -3   0   3  606.21    8.38
   3   0  -3  594.40    9.25
   3   0  -3  588.81    9.09
   3   0  -3  585.94    9.05
  -3   0   3  573.61    8.68
  -3   0   3  590.72    9.71
  -3   0   3  581.83    8.80
   3   0  -3  579.39    9.39
  -3   0   3  589.88    8.85
  -3   0   3  600.92   10.06
  -3   0   3  567.10    8.25
   3   0  -3  607.36    9.11
   3   0  -2    1.77    0.69
   3   0  -2    4.66    0.92
   3   0  -2    1.69    0.44
  -3   0   2    1.86    0.50
  -3   0   2    4.58    0.85
  -3   0   2    1.21    0.41
   3   0  -2    1.25    0.51
   3   0  -2    3.32    0.60
  -3   0   2    1.75    0.51
   3   0  -2    1.85    0.51
   3   0  -2    2.18    0.60
   3   0  -2    1.40    0.50
  -3   0   2    1.19    0.54
  -3   0   2    1.28    0.51
   3   0  -2    1.57    0.53
  -3   0   2    1.25    0.52
  -3   0   2    1.96    0.45
  -3   0   2    1.47    0.73
   3   0  -2    1.84    0.55
  -3   0   2    1.63    0.45
   3   0  -1 1218.85   12.00
   3   0  -1 1228.97   12.74
   3   0  -1 1253.86   11.51
   3   0  -1 1290.43   11.24
  -3   0   1 1186.77    9.47
  -3   0   1 1196.96    9.55
  -3   0   1 1191.34    9.49
   3   0  -1 1169.56   10.79
   3   0  -1 1229.30    9.84
  -3   0   1 1295.34   10.62
   3   0  -1 1208.13    9.82
   3   0  -1 1221.17    9.83
  -3   0   1 1306.17    8.06
  -3   0   1 1211.48    9.49
  -3   0   1 1266.13    9.77
   3   0  -1 1191.13   10.39
  -3   0   1 1253.74    9.79
  -3   0   1 1226.24   12.42
  -3   0   1 1268.64    6.41
  -3   0   1 1225.02    6.86
   3   0  -1 1182.19   10.03
   3   0   0    1.41    0.59
  -3   0   0    1.15    0.35
   3   0   0    0.81    0.51
  -3   0   0    0.76    0.30
  -3   0   0    0.92    0.31
  -3   0   0    0.68    0.25
  -3   0   0    0.96    0.32
   3   0   0    1.36    0.35
   3   0   0    0.97    0.53
   3   0   0    0.81    0.29
   3   0   0    1.01    0.33
   3   0   0    1.15    0.30
  -3   0   0    0.90    0.31
   3   0   0    1.38    0.35
   3   0   0    0.92    0.36
  -3   0   0    1.35    0.40
  -3   0   0    0.68    0.44
  -3   0   0    1.21    0.49
  -3   0   0    0.86    0.13
   3   0   1  136.16    4.18
   3   0   1  135.42    4.01
   3   0   1  137.49    4.33
  -3   0  -1  128.37    2.60
  -3   0  -1  133.93    2.62
  -3   0  -1  133.56    2.60
   3   0   1  132.08    2.63
  -3   0  -1  134.67    2.63
  -3   0  -1  137.14    4.16
   3   0   1  130.17    2.79
   3   0   1  134.87    2.74
  -3   0  -1  128.16    2.66
   3   0   1  136.62    2.68
  -3   0  -1  133.37    2.63
   3   0   1  133.60    2.68
  -3   0  -1  143.64    3.51
  -3   0  -1  140.09    3.76
   3   0   1  131.20    2.74
   3   0   2  333.33    7.03
   3   0   2  327.20    4.75
   3   0   2  319.29    6.09
  -3   0  -2  325.53    4.57
  -3   0  -2  346.75    4.83
  -3   0  -2  325.31    4.51
   3   0   2  333.46    4.61
  -3   0  -2  325.29    4.55
  -3   0  -2  326.02    6.69
   3   0   2  338.91    4.73
   3   0   2  336.09    4.65
  -3   0  -2  320.07    4.50
   3   0   2  330.48    4.63
  -3   0  -2  347.75    4.64
  -3   0  -2  325.51    5.81
   3   0   3 2272.76   19.82
   3   0   3 2248.49   15.87
  -3   0  -3 2223.82   14.63
  -3   0  -3 2209.44   14.38
  -3   0  -3 2194.54   13.96
  -3   0  -3 2192.65   13.91
   3   0   3 2266.46   14.04
   3   0   3 2160.57   14.37
  -3   0  -3 2173.95   14.05
  -3   0  -3 2343.28   19.12
   3   0   3 2285.51   14.35
   3   0   3 2355.43   14.34
   3   0   3 2324.56   14.13
  -3   0  -3 2214.27   13.87
   3   0   3 2305.72   14.17
  -3   0  -3 2123.79   15.35
   3   0   4   42.99    3.01
   3   0   4   47.17    2.33
  -3   0  -4   46.28    2.45
  -3   0  -4   47.44    2.44
  -3   0  -4   43.89    2.30
   3   0   4   46.30    2.40
   3   0   4   47.29    2.40
  -3   0  -4   46.94    2.39
   3   0   4   43.67    2.37
  -3   0  -4   49.31    3.02
   3   0   4   43.31    2.29
   3   0   4   42.28    2.24
  -3   0  -4   43.80    2.29
   3   0   4   46.86    2.39
  -3   0  -4   48.46    2.51
  -3   0  -4   44.52    2.45
   3   0   5  195.43    6.79
  -3   0  -5  203.80    7.38
  -3   0  -5  194.94    5.85
  -3   0  -5  205.00    5.80
  -3   0  -5  194.17    5.55
   3   0   5  189.52    5.43
  -3   0  -5  193.25    5.53
   3   0   5  193.56    5.58
  -3   0  -5  183.90    6.33
   3   0   5  197.00    5.53
   3   0   5  203.55    5.60
  -3   0  -5  189.50    5.45
   3   0   5  193.98    5.50
   3   0   6  238.18    8.02
  -3   0  -6  244.82    8.91
  -3   0  -6  238.15    7.76
  -3   0  -6  245.34    8.43
  -3   0  -7  633.06   15.37
   3   0   7  647.64   14.12
   3   0   7  610.74    8.68
  -3   0  -7  647.50   13.60
  -3   0  -7  596.81   14.16
   3   0   7  635.47    8.87
   3   0   7  631.96    8.74
   3   0   7  608.16    8.68
   3   0   7  605.14    8.87
   3   0   8  813.96   10.56
   3   0   8  775.72   16.00
  -3   0  -8  773.79   18.11
   3   0   8  825.96   10.53
   3   0   8  792.17    9.61
   3   0   8  769.63    9.61
  -3   0  -8  782.16    9.79
   3   0   8  808.85   10.27
   3   0   8  789.97    9.63
   3   0   8  822.91   10.46
   3   0   8  817.86   10.66
   3   0   9  112.27    3.94
   3   0   9  113.61    3.63
   3   0   9  111.09    3.62
  -3   0  -9  109.97    3.73
   3   0   9  111.67    3.96
   3   0   9  109.25    3.76
   3   0   9  111.92    3.59
   3   0   9  108.35    3.84
  -3   0  -9  110.03    3.89
   3   0  10   14.56    1.25
   3   0  10   14.25    1.42
   3   0  10   15.49    1.30
  -3   0 -10   14.98    1.37
   3   0  10   14.52    1.45
   3   0  10   14.40    1.31
   3   0  10   15.26    1.24
   3   0  10   15.30    1.40
  -3   0 -10   14.05    1.39
  -3   0 -11  421.95    6.58
  -3   0 -11  392.17    6.02
   3   0  11  412.22    6.37
   3   0  11  394.10    5.36
  -3   0 -11  394.42    5.83
   3   0  11  409.67    6.42
   3   0  11  395.96    5.50
  -3   0 -11  413.97    6.32
  -3   0 -12  150.33    3.09
   3   0  12  146.70    3.04
  -3   0 -12  138.53    2.60
   3   0  12  143.18    3.03
  -3   0 -12  142.24    2.96
   3   1 -12  340.82    4.05
  -3  -1  12  339.38    3.83
  -3  -1  12  331.77    3.74
   3   1 -12  335.12    3.98
   3   1 -11    2.23    0.59
   3   1 -11    2.94    0.61
  -3  -1  11    2.56    0.59
  -3  -1  11    2.16    0.58
   3   1 -11    2.12    0.51
   3   1 -11    2.08    0.58
  -3  -1  11    2.29    0.54
  -3  -1  11    2.38    0.51
   3   1 -10    7.77    0.92
   3   1 -10    7.84    1.09
   3   1 -10    7.36    0.97
  -3  -1  10    8.60    1.09
  -3  -1  10    7.96    1.04
   3   1 -10    7.71    0.88
   3   1 -10    7.17    0.91
   3   1 -10    8.90    1.13
  -3  -1  10    7.50    0.99
  -3  -1  10    6.13    0.88
   3   1  -9   19.53    1.57
   3   1  -9   21.55    1.78
   3   1  -9   22.13    1.74
  -3  -1   9   23.37    1.79
  -3  -1   9   21.85    1.72
   3   1  -9   22.19    1.61
   3   1  -9   21.56    1.65
   3   1  -9   24.35    1.89
  -3  -1   9   23.23    1.76
  -3  -1   9   24.74    1.80
   3   1  -8   27.85    1.87
   3   1  -8   27.22    1.89
   3   1  -8   26.86    1.99
  -3  -1   8   29.40    2.01
  -3  -1   8   29.56    2.01
   3   1  -8   27.91    1.90
   3   1  -8   26.84    1.98
  -3  -1   8   27.77    1.93
   3   1  -8   28.52    1.95
  -3  -1   8   32.42    2.07
   3   1  -7   17.70    2.54
   3   1  -7   19.86    1.57
   3   1  -7   18.27    2.71
  -3  -1   7   20.57    2.60
   3   1  -7   20.63    1.69
   3   1  -7   18.95    2.81
  -3  -1   7   19.61    2.62
   3   1  -7   19.23    1.56
  -3  -1   7   22.25    1.68
  -3  -1   7   18.49    2.50
   3   1  -7   20.60    2.77
   3   1  -7   17.42    2.52
   3   1  -7   20.95    1.60
  -3  -1   7   21.35    2.68
  -3  -1   7   22.09    2.66
   3   1  -7   19.36    1.51
   3   1  -7   17.96    2.56
   3   1  -7   21.91    1.72
  -3  -1   7   18.19    2.63
  -3  -1   7   19.73    1.56
  -3  -1   7   18.06    2.60
   3   1  -6    0.67    0.82
  -3  -1   6    1.70    0.80
  -3  -1   6    0.87    0.64
   3   1  -6    3.19    1.31
   3   1  -6    1.20    0.84
  -3  -1   6    0.43    0.72
   3   1  -6    2.57    1.03
   3   1  -6    1.17    0.74
  -3  -1   6    2.84    1.04
  -3  -1   6    2.67    0.97
   3   1  -6    1.82    0.93
  -3  -1   6    1.45    0.77
  -3  -1   6    0.78    0.74
  -3  -1   6    3.07    1.22
  -3  -1   6    0.88    0.75
   3   1  -6    1.23    0.73
  -3  -1   5  683.72   12.35
   3   1  -5  603.73   12.19
  -3  -1   5  658.29   11.01
  -3  -1   5  649.27   12.05
  -3  -1   5  659.64   12.18
   3   1  -5  675.34   13.16
   3   1  -5  671.29   12.55
   3   1  -5  690.95   12.69
   3   1  -5  676.25   12.61
  -3  -1   5  661.61   12.14
  -3  -1   5  658.55   13.32
   3   1  -5  631.82   13.16
  -3  -1   5  687.67   12.31
   3   1  -5  675.64   12.80
  -3  -1   5  677.14   12.26
  -3  -1   5  645.67   11.95
  -3  -1   5  667.52   12.58
   3   1  -4  389.96    8.91
  -3  -1   4  390.65    7.59
  -3  -1   4  368.31    8.08
  -3  -1   4  381.10    8.18
   3   1  -4  399.46    7.91
  -3  -1   4  370.83    8.13
   3   1  -4  377.01    8.83
  -3  -1   4  396.63    9.24
   3   1  -4  381.93    8.39
   3   1  -4  376.19    8.34
  -3  -1   4  373.60    8.13
  -3  -1   4  386.11    8.17
   3   1  -4  380.58    8.61
  -3  -1   4  379.42    8.17
  -3  -1   4  394.06    8.70
  -3  -1   4  393.79    8.64
   3   1  -4  365.32    8.26
   3   1  -4  376.28    9.05
   3   1  -3   64.24    3.26
   3   1  -3   66.50    2.55
   3   1  -3   66.55    3.09
  -3  -1   3   64.99    3.39
   3   1  -3   64.49    2.44
  -3  -1   3   64.50    2.92
  -3  -1   3   66.10    2.97
   3   1  -3   64.57    3.29
   3   1  -3   64.11    3.21
  -3  -1   3   62.38    2.89
   3   1  -3   61.47    2.97
   3   1  -3   65.82    3.04
   3   1  -3   64.65    3.01
  -3  -1   3   66.33    2.97
  -3  -1   3   64.32    2.92
   3   1  -3   66.50    3.14
  -3  -1   3   66.81    2.99
  -3  -1   3   63.12    3.27
  -3  -1   3   65.85    3.16
  -3  -1   3   63.94    2.79
   3   1  -2    7.87    1.07
  -3  -1   2    9.77    1.23
   3   1  -2    7.06    1.04
   3   1  -2    9.12    0.97
  -3  -1   2    6.77    0.86
   3   1  -2    6.74    0.94
   3   1  -2    6.76    0.92
  -3  -1   2    8.59    0.94
   3   1  -2    8.46    0.95
   3   1  -2    8.13    0.97
   3   1  -2    8.54    0.97
  -3  -1   2    8.38    0.91
  -3  -1   2    7.27    0.88
   3   1  -2    8.17    0.99
  -3  -1   2    7.91    1.15
  -3  -1   2    7.43    0.97
  -3  -1   2    7.89    0.91
  -3  -1   2    8.55    0.93
  -3  -1   2    7.43    0.89
   3   1  -1  906.69    9.73
   3   1  -1  955.54   10.70
   3   1  -1  942.09    9.90
  -3  -1   1  909.75    7.35
   3   1  -1  867.45    9.79
   3   1  -1  913.75    8.10
  -3  -1   1  915.46    7.35
   3   1  -1  884.14    7.56
   3   1  -1  871.97    7.49
   3   1  -1  880.19    7.47
  -3  -1   1  923.87    7.35
  -3  -1   1  874.15    7.29
  -3  -1   1  973.29    8.80
   3   1  -1  877.54    7.66
  -3  -1   1  938.67   10.75
  -3  -1   1  905.86    7.37
  -3  -1   1  918.75    8.91
  -3  -1   1  884.90    7.35
   3   1  -1  890.84    8.09
  -3  -1   1  906.42    9.88
   3   1   0 1548.66   11.30
   3   1   0 1578.29   13.62
   3   1   0 1621.64   13.49
  -3  -1   0 1458.64    5.57
   3   1   0 1551.62   13.18
  -3  -1   0 1468.22    5.60
   3   1   0 1522.80    6.08
  -3  -1   0 1487.23    5.65
   3   1   0 1529.84    5.86
  -3  -1   0 1607.18   11.28
   3   1   0 1521.89    5.81
   3   1   0 1501.65    6.16
   3   1   0 1522.17    5.81
  -3  -1   0 1453.92    5.52
  -3  -1   0 1490.68    5.58
   3   1   0 1526.08    5.98
  -3  -1   0 1488.29    5.57
  -3  -1   0 1665.64   10.56
  -3  -1   0 1631.61   11.55
   3   1   1  437.02    5.35
   3   1   1  437.11    7.07
   3   1   1  421.46    7.18
   3   1   1  449.85    7.37
  -3  -1  -1  419.14    5.23
  -3  -1  -1  417.25    5.33
   3   1   2  166.13    4.38
   3   1   2  163.65    4.73
   3   1   2  165.45    4.76
  -3  -1  -2  160.67    4.16
  -3  -1  -2  158.14    3.05
  -3  -1  -3   -0.30    0.19
   3   1   3    0.23    0.40
   3   1   3    0.60    0.21
   3   1   3    0.47    0.58
  -3  -1  -3    0.87    0.25
   3   1   3    0.05    0.54
   3   1   3    0.64    0.22
   3   1   3    1.10    0.27
  -3  -1  -3   -0.07    0.32
   3   1   3    1.27    0.23
   3   1   3    0.47    0.21
  -3  -1  -3    0.63    0.26
  -3  -1  -3    0.76    0.25
   3   1   3    1.18    0.26
   3   1   4  212.87    4.26
   3   1   4  211.95    4.22
   3   1   4  197.78    5.06
   3   1   4  213.14    4.25
   3   1   4  216.45    6.20
  -3  -1  -4  207.54    4.50
  -3  -1  -4  218.28    6.51
  -3  -1  -4  213.55    4.26
   3   1   4  220.27    4.30
  -3  -1  -4  206.13    4.24
  -3  -1  -4  229.63    5.68
   3   1   4  218.59    4.41
  -3  -1  -4  213.66    4.40
  -3  -1  -4  210.78    4.21
   3   1   4  209.82    4.22
   3   1   4  212.30    4.23
  -3  -1  -4  213.17    4.29
   3   1   5   10.83    1.55
   3   1   5   10.38    1.16
   3   1   5   10.40    1.17
  -3  -1  -5   10.86    1.44
  -3  -1  -5    8.55    1.58
   3   1   5   10.73    1.21
   3   1   5   10.36    1.17
   3   1   5   11.31    1.24
   3   1   5    9.72    1.17
   3   1   6  370.40    9.37
  -3  -1  -6  376.34    8.62
  -3  -1  -6  360.41   10.07
  -3  -1  -6  389.37   10.71
   3   1   7  421.11   10.66
  -3  -1  -7  420.38   12.18
  -3  -1  -7  412.64   11.63
   3   1   8    0.85    0.43
  -3  -1  -8    1.08    0.62
   3   1   8    1.09    0.49
  -3  -1  -8    1.50    0.78
   3   1   8    1.57    0.59
   3   1   8    1.17    0.50
   3   1   8    1.57    0.66
  -3  -1  -9  188.42    4.68
   3   1   9  188.59    5.07
   3   1   9  185.43    4.91
  -3  -1  -9  188.64    5.03
   3   1   9  189.01    5.10
   3   1   9  190.21    5.01
   3   1   9  185.30    5.10
   3   1   9  202.51    5.38
  -3  -1 -10  258.06    5.31
   3   1  10  260.70    5.86
   3   1  10  250.93    5.58
  -3  -1 -10  263.15    5.78
   3   1  10  254.17    5.81
   3   1  10  262.71    5.68
   3   1  10  261.10    5.89
   3   1  10  259.97    6.01
  -3  -1 -11   41.33    1.91
   3   1  11   41.85    2.19
   3   1  11   40.28    2.02
  -3  -1 -11   40.17    2.10
   3   1  11   38.75    2.12
   3   1  11   40.48    1.98
   3   1  11   37.90    2.06
  -3  -1 -11   39.26    2.16
  -3  -1 -12   32.40    1.34
  -3  -1 -12   37.77    1.79
   3   1  12   34.82    1.68
  -3  -1 -12   34.13    1.46
   3   1  12   35.62    1.54
  -3  -1 -12   36.23    1.65
   3   1  12   34.85    1.69
   3   1  12   33.74    1.38
  -3  -1 -12   34.26    1.68
  -3  -1 -13    0.01    0.27
   3   2 -11  148.09    3.23
   3   2 -11  141.25    3.07
  -3  -2  11  142.22    2.89
  -3  -2  11  138.64    3.10
   3   2 -11  139.87    2.88
   3   2 -11  147.83    3.21
  -3  -2  11  133.35    2.58
  -3  -2  11  145.91    2.99
  -3  -2  10    1.63    0.48
   3   2 -10    1.84    0.62
   3   2 -10    1.94    0.63
  -3  -2  10    0.84    0.49
  -3  -2  10    1.62    0.58
   3   2 -10    1.12    0.50
   3   2 -10    2.25    0.66
  -3  -2  10    1.65    0.49
  -3  -2  10    0.57    0.53
   3   2 -10    1.75    0.48
   3   2 -10    0.84    0.42
  -3  -2   9   77.56    2.89
   3   2  -9   78.36    2.90
   3   2  -9   81.50    3.31
   3   2  -9   77.24    3.15
  -3  -2   9   81.55    3.10
  -3  -2   9   80.98    3.20
   3   2  -9   77.24    3.08
   3   2  -9   80.49    3.26
  -3  -2   9   77.91    2.97
  -3  -2   9   79.54    3.10
   3   2  -9   78.73    2.95
   3   2  -8   11.41    1.19
   3   2  -8   13.48    1.45
   3   2  -8   13.09    1.38
  -3  -2   8   12.75    1.32
  -3  -2   8   11.81    1.33
   3   2  -8   12.70    1.24
   3   2  -8   11.82    1.32
   3   2  -8   13.82    1.46
  -3  -2   8   11.73    1.23
  -3  -2   8   15.32    1.53
   3   2  -8   12.44    1.28
   3   2  -7   40.28    3.87
   3   2  -7   37.75    2.16
   3   2  -7   35.91    2.26
  -3  -2   7   35.97    3.57
   3   2  -7   39.09    4.12
   3   2  -7   43.52    4.24
   3   2  -7   38.86    3.91
   3   2  -7   36.89    2.22
  -3  -2   7   38.97    2.19
  -3  -2   7   39.49    3.77
   3   2  -7   41.32    3.93
  -3  -2   7   39.48    2.24
   3   2  -7   40.97    3.94
   3   2  -7   37.47    2.09
  -3  -2   7   37.78    3.78
  -3  -2   7   41.39    3.78
  -3  -2   7   34.75    3.50
   3   2  -7   31.84    2.07
   3   2  -7   37.24    3.75
  -3  -2   7   38.83    3.67
   3   2  -7   38.43    2.35
  -3  -2   7   44.17    4.22
  -3  -2   7   36.94    3.89
  -3  -2   7   42.04    2.21
  -3  -2   7   40.37    2.29
   3   2  -7   45.26    2.33
   3   2  -6   34.04    3.38
   3   2  -6   41.07    3.60
  -3  -2   6   37.59    3.31
   3   2  -6   36.66    3.69
   3   2  -6   44.68    3.95
   3   2  -6   43.34    3.82
  -3  -2   6   40.48    3.50
   3   2  -6   42.79    3.68
  -3  -2   6   38.25    3.45
  -3  -2   6   42.19    3.56
  -3  -2   6   37.89    3.65
  -3  -2   6   42.95    3.58
   3   2  -6   41.40    3.67
  -3  -2   6   39.49    3.44
  -3  -2   6   37.94    3.07
  -3  -2   6   39.99    3.69
  -3  -2   6   38.17    3.38
   3   2  -5  309.00    9.03
  -3  -2   5  314.19    8.75
  -3  -2   5  317.38    8.74
   3   2  -5  302.09    9.52
   3   2  -5  321.00    9.31
  -3  -2   5  324.36    9.78
  -3  -2   5  325.65    8.88
   3   2  -5  321.43    9.10
   3   2  -5  331.29    9.20
   3   2  -5  330.92    9.76
  -3  -2   5  332.13    9.13
  -3  -2   5  314.02    8.75
  -3  -2   5  330.32    8.90
   3   2  -5  319.52    9.14
  -3  -2   5  315.29    8.77
  -3  -2   5  317.89    8.46
  -3  -2   5  319.08    9.43
   3   2  -4 1450.80   17.63
  -3  -2   4 1399.59   16.89
  -3  -2   4 1462.28   18.77
  -3  -2   4 1465.08   16.75
   3   2  -4 1392.01   18.08
   3   2  -4 1468.50   18.25
   3   2  -4 1443.33   17.79
  -3  -2   4 1415.20   16.60
   3   2  -4 1446.34   17.21
   3   2  -4 1469.75   17.25
  -3  -2   4 1418.61   16.98
  -3  -2   4 1452.20   16.66
  -3  -2   4 1433.66   16.62
   3   2  -4 1428.75   17.22
  -3  -2   4 1406.78   16.49
  -3  -2   4 1407.30   16.78
  -3  -2   4 1435.10   18.13
   3   2  -3    6.05    1.13
   3   2  -3    6.73    1.00
   3   2  -3    5.77    0.92
  -3  -2   3    3.62    0.88
   3   2  -3    4.96    1.05
   3   2  -3    3.68    0.94
   3   2  -3    5.36    1.04
  -3  -2   3    5.85    1.06
  -3  -2   3    5.96    1.02
   3   2  -3    4.81    0.91
  -3  -2   3    5.56    1.03
  -3  -2   3    3.65    0.83
  -3  -2   3    5.57    0.97
   3   2  -3    5.10    0.99
  -3  -2   3    5.16    0.95
  -3  -2   3    6.37    1.19
   3   2  -3    5.99    1.03
  -3  -2   3    6.21    1.13
  -3  -2   3    6.60    1.30
   3   2  -2  112.87    3.67
   3   2  -2  110.58    3.79
   3   2  -2  105.58    3.75
   3   2  -2  110.39    3.76
   3   2  -2  114.47    3.71
  -3  -2   2  117.49    3.58
   3   2  -2  112.77    3.62
   3   2  -2  106.56    3.56
  -3  -2   2  114.11    3.62
  -3  -2   2  113.57    3.50
  -3  -2   2  109.95    3.43
   3   2  -2  115.14    3.69
  -3  -2   2  115.07    3.53
  -3  -2   2  105.85    4.08
  -3  -2   2  111.84    3.50
  -3  -2   2  113.15    3.97
  -3  -2   2  111.61    4.32
   3   2  -2  113.99    3.93
   3   2  -1   36.60    1.98
   3   2  -1   38.91    2.15
  -3  -2   1   37.67    1.36
   3   2  -1   40.37    2.28
  -3  -2   1   37.38    1.64
   3   2  -1   37.88    1.83
   3   2  -1   37.97    1.76
   3   2  -1   37.65    1.73
  -3  -2   1   38.39    1.67
   3   2  -1   36.36    1.68
   3   2  -1   37.03    1.68
  -3  -2   1   37.34    1.69
  -3  -2   1   37.37    1.65
  -3  -2   1   38.03    1.66
   3   2  -1   38.78    1.74
  -3  -2   1   38.44    2.19
  -3  -2   1   36.65    1.63
  -3  -2   1   39.73    2.27
  -3  -2   1   37.63    2.30
   3   2   0 1728.31   11.48
   3   2   0 1824.64   14.43
  -3  -2   0 1868.38   12.16
  -3  -2   0 1755.84   14.26
   3   2   0 1875.36   15.45
   3   2   0 1755.02    8.36
  -3  -2   0 1796.19    7.55
   3   2   0 1795.11    8.33
   3   2   0 1787.08    8.16
   3   2   0 1734.26    7.95
   3   2   0 1703.22   14.86
  -3  -2   0 1711.76    7.75
   3   2   0 1753.79    7.93
  -3  -2   0 1721.34    8.12
  -3  -2   0 1777.94   14.17
  -3  -2   0 1758.04    7.90
  -3  -2   0 1736.40    7.76
  -3  -2   0 1728.61    7.69
   3   2   0 1764.76    7.92
  -3  -2   0 1744.77    7.77
  -3  -2   0 1840.83   14.03
   3   2   0 1616.35   10.05
   3   2   1   87.41    2.00
   3   2   1   86.35    3.22
   3   2   1   89.13    3.43
  -3  -2  -1   90.98    2.47
   3   2   1   87.76    3.39
   3   2   1   86.98    1.81
   3   2   2 2094.76   16.12
   3   2   2 2093.76   16.82
  -3  -2  -2 2128.56   14.59
   3   2   2 2089.81    8.90
   3   2   3  187.33    4.98
   3   2   3  185.59    5.22
   3   2   3  184.67    5.24
  -3  -2  -3  183.65    5.04
   3   2   3  186.27    3.31
  -3  -2  -3  183.92    4.12
  -3  -2  -3  191.38    5.44
   3   2   4 1472.37   15.56
   3   2   4 1523.86   15.55
  -3  -2  -4 1474.97   16.17
  -3  -2  -4 1514.01   12.48
   3   2   4 1475.53   11.50
  -3  -2  -4 1516.36   16.97
   3   2   5  131.57    4.95
   3   2   5  138.69    4.95
  -3  -2  -5  131.17    5.43
   3   2   5  132.93    4.13
  -3  -2  -5  128.94    4.01
  -3  -2  -5  133.09    5.56
   3   2   6   89.87    4.39
  -3  -2  -6   91.24    5.04
   3   2   6   85.04    3.79
  -3  -2  -6   83.10    4.81
  -3  -2  -7  571.55   13.53
   3   2   7  553.70   11.42
  -3  -2  -7  525.99   13.29
  -3  -2  -7  510.57   12.96
  -3  -2  -8  351.27   11.27
   3   2   8  367.40    6.66
   3   2   8  362.91    6.98
   3   2   8  351.42    6.24
  -3  -2  -8  347.02   11.49
   3   2   8  364.54    6.63
  -3  -2  -8  386.42   12.40
   3   2   8  357.54    6.80
   3   2   8  361.51    6.86
   3   2   8  356.99    6.87
  -3  -2  -9  415.89    7.17
  -3  -2  -9  392.75    6.94
   3   2   9  397.01    7.19
   3   2   9  395.48    7.40
   3   2   9  402.12    7.28
   3   2   9  400.38    7.34
   3   2   9  396.78    7.46
   3   2   9  400.94    7.57
  -3  -2 -10   89.50    3.30
  -3  -2 -10   94.96    3.37
   3   2  10   91.80    3.46
   3   2  10   88.59    3.44
   3   2  10   89.99    3.44
   3   2  10   92.95    3.48
   3   2  10   93.12    3.62
   3   2  10   97.57    3.76
  -3  -2 -11  126.86    3.57
  -3  -2 -11  122.29    3.54
   3   2  11  125.92    3.76
   3   2  11  131.42    3.89
  -3  -2 -11  124.77    3.84
   3   2  11  118.65    3.67
   3   2  11  123.17    3.88
   3   2  11  121.87    3.62
   3   2  11  123.61    3.95
  -3  -2 -12   13.30    0.98
  -3  -2 -12   14.86    1.08
   3   2  12   14.52    1.16
   3   2  12   14.92    1.19
  -3  -2 -12   14.94    1.20
   3   2  12   14.81    1.17
   3   2  12   14.12    1.04
   3   2  12   14.90    1.21
  -3  -2 -12   14.32    1.21
  -3  -2 -13   40.75    1.39
   3   2  13   38.70    1.30
   3   2  13   38.20    1.31
  -3  -2 -13   40.58    1.42
   3   2  13   36.24    1.26
  -3  -2 -13   34.33    1.35
   3   3 -11    9.13    0.67
   3   3 -11    9.29    0.73
  -3  -3  11    8.77    0.71
   3   3 -11    8.79    0.67
   3   3 -11    8.67    0.65
  -3  -3  11    9.40    0.71
  -3  -3  10   63.13    2.07
   3   3 -10   69.69    2.42
   3   3 -10   65.81    2.41
  -3  -3  10   65.35    2.02
  -3  -3  10   67.59    2.41
   3   3 -10   66.67    2.38
   3   3 -10   65.87    2.34
  -3  -3  10   62.34    1.92
  -3  -3  10   66.20    2.34
   3   3 -10   64.58    1.91
   3   3 -10   64.80    2.22
  -3  -3   9   19.08    1.43
   3   3  -9   19.12    1.55
   3   3  -9   18.36    1.50
  -3  -3   9   19.68    1.37
  -3  -3   9   20.10    1.57
   3   3  -9   19.05    1.55
   3   3  -9   19.31    1.54
  -3  -3   9   18.46    1.50
   3   3  -9   19.69    1.36
   3   3  -9   19.07    1.49
  -3  -3   8   86.46    3.23
   3   3  -8   85.69    3.44
  -3  -3   8   92.00    3.11
   3   3  -8   88.60    3.48
  -3  -3   8   90.47    3.15
  -3  -3   8   88.16    3.36
   3   3  -8   88.00    3.47
   3   3  -8   85.51    3.42
  -3  -3   8   84.40    3.30
   3   3  -8   86.52    3.33
   3   3  -7  106.28    3.55
   3   3  -7  105.15    3.85
   3   3  -7  105.83    3.83
  -3  -3   7  104.01    3.68
   3   3  -7  102.32    3.76
   3   3  -7  108.41    3.89
  -3  -3   7  107.03    3.73
   3   3  -7   99.57    3.64
   3   3  -6   10.64    1.14
   3   3  -6   12.51    2.10
   3   3  -6   11.95    1.29
   3   3  -6   13.39    1.34
  -3  -3   6   10.93    1.95
   3   3  -6   11.85    2.25
   3   3  -6   13.75    2.42
   3   3  -6   14.73    2.33
  -3  -3   6    9.27    1.79
  -3  -3   6   10.50    1.15
   3   3  -6   12.24    2.22
  -3  -3   6   11.47    2.14
   3   3  -6   15.02    2.36
  -3  -3   6   13.83    2.15
  -3  -3   6   10.92    1.95
   3   3  -6   10.83    1.20
   3   3  -6    9.07    1.84
   3   3  -6   10.90    1.26
  -3  -3   6    9.77    1.86
  -3  -3   6   10.43    1.91
  -3  -3   6   13.88    2.35
  -3  -3   6   12.71    2.27
  -3  -3   6   12.52    1.30
   3   3  -6   13.02    1.31
  -3  -3   5  195.38    7.67
  -3  -3   5  201.38    8.13
   3   3  -5  207.70    7.83
  -3  -3   5  212.12    7.63
  -3  -3   5  205.07    7.50
   3   3  -5  211.82    7.84
   3   3  -5  216.89    7.89
   3   3  -5  211.44    8.39
  -3  -3   5  196.99    7.52
  -3  -3   5  217.21    7.75
  -3  -3   5  217.15    7.70
   3   3  -5  220.48    7.99
  -3  -3   5  216.62    7.73
  -3  -3   5  205.47    7.02
  -3  -3   5  201.89    8.17
   3   3  -5  218.29    8.26
   3   3  -5  206.44    7.82
  -3  -3   4   68.71    4.41
   3   3  -4   69.24    4.38
   3   3  -4   67.17    4.18
   3   3  -4   69.30    4.16
  -3  -3   4   71.65    4.05
   3   3  -4   68.20    4.06
   3   3  -4   72.18    4.14
  -3  -3   4   72.25    4.12
  -3  -3   4   65.76    3.89
  -3  -3   4   67.08    3.90
   3   3  -4   71.70    4.14
  -3  -3   4   73.75    4.01
  -3  -3   4   63.76    3.84
  -3  -3   4   70.28    4.49
  -3  -3   4   66.92    3.94
  -3  -3   4   70.70    4.30
   3   3  -4   64.41    3.98
  -3  -3   3  308.59    8.57
   3   3  -3  333.70    7.72
   3   3  -3  318.23    8.27
   3   3  -3  325.87    8.13
  -3  -3   3  314.21    7.49
  -3  -3   3  320.60    7.59
   3   3  -3  330.99    7.87
   3   3  -3  317.16    7.70
  -3  -3   3  310.66    7.63
  -3  -3   3  322.80    7.61
  -3  -3   3  320.62    7.56
   3   3  -3  317.20    7.74
  -3  -3   3  315.09    7.53
  -3  -3   3  302.65    8.52
  -3  -3   3  325.04    8.48
   3   3  -3  318.14    7.83
   3   3  -3  308.44    7.80
   3   3  -2    6.31    1.01
   3   3  -2    7.45    0.99
  -3  -3   2    7.37    1.04
   3   3  -2    8.33    1.26
   3   3  -2    8.06    1.20
   3   3  -2    7.56    1.11
  -3  -3   2    7.23    1.30
  -3  -3   2    8.31    1.12
   3   3  -2    8.63    1.18
   3   3  -2    7.37    1.06
  -3  -3   2    6.90    1.05
  -3  -3   2    8.31    1.11
  -3  -3   2    7.51    1.06
   3   3  -2    7.12    1.09
  -3  -3   2    8.17    1.13
  -3  -3   2    8.34    1.43
   3   3  -2    8.17    1.20
  -3  -3   2    7.08    1.29
   3   3  -1    2.52    0.61
   3   3  -1    1.04    0.57
   3   3  -1    1.28    0.50
   3   3  -1    1.40    0.65
   3   3  -1    1.33    0.56
   3   3  -1    0.97    0.48
  -3  -3   1    0.93    0.60
   3   3  -1    1.47    0.51
  -3  -3   1    1.48    0.43
  -3  -3   1    0.51    0.38
   3   3  -1    1.57    0.51
  -3  -3   1    0.53    0.63
  -3  -3   1    1.10    0.46
  -3  -3   1    1.43    0.51
  -3  -3   1    1.15    0.49
   3   3  -1    0.81    0.45
  -3  -3   1    1.07    0.44
  -3  -3   1    2.47    0.86
  -3  -3   1    1.10    0.47
   3   3  -1    0.78    0.48
   3   3   0   75.53    3.06
  -3  -3   0   87.62    3.02
   3   3   0   83.08    3.65
   3   3   0   82.10    2.68
   3   3   0   81.23    2.59
   3   3   0   81.99    2.60
   3   3   0   81.43    2.64
  -3  -3   0   77.61    2.47
   3   3   0   85.44    2.59
  -3  -3   0   79.65    2.61
  -3  -3   0   80.21    2.55
  -3  -3   0   83.85    2.56
  -3  -3   0   79.86    2.48
   3   3   0   81.88    2.55
  -3  -3   0   78.88    2.48
  -3  -3   0   79.75    3.52
  -3  -3   0   82.09    2.10
   3   3   0   78.62    2.84
   3   3   0   79.62    2.67
   3   3   1 4147.13   14.41
   3   3   1 4138.15   23.14
  -3  -3  -1 4016.41   22.41
   3   3   1 4019.65   25.22
   3   3   1 4072.18   15.02
   3   3   1 4123.85   15.00
   3   3   1 4069.10   14.90
   3   3   1 4068.53   14.98
  -3  -3  -1 3968.97   14.49
  -3  -3  -1 4032.32   15.58
  -3  -3  -1 4103.26   15.18
  -3  -3  -1 4083.60   24.90
  -3  -3  -1 4035.21   14.80
   3   3   1 4037.87   15.32
  -3  -3  -1 3966.21   14.52
   3   3   1 4061.90   14.88
  -3  -3  -1 4022.02   14.75
  -3  -3  -1 3940.27   24.08
  -3  -3  -1 3995.38   19.45
   3   3   1 4149.59   18.71
   3   3   2  468.24    8.15
   3   3   2  472.06    4.58
  -3  -3  -2  493.25    8.53
   3   3   2  510.25    9.06
   3   3   2  475.52    4.58
   3   3   2  474.15    4.59
  -3  -3  -2  528.41    6.87
   3   3   2  478.14    4.60
   3   3   2  485.63    8.65
   3   3   2  468.42    4.55
   3   3   2  484.95    6.33
   3   3   2  468.39    4.60
  -3  -3  -2  493.49    7.86
   3   3   3 4323.35   25.99
   3   3   3 4344.68   19.84
  -3  -3  -3 4284.30   26.01
  -3  -3  -3 4353.75   23.94
  -3  -3  -4  346.40    8.43
   3   3   4  367.50    7.85
   3   3   4  357.75    7.70
  -3  -3  -4  349.56    7.78
   3   3   4  353.51    6.38
  -3  -3  -4  339.93    8.26
  -3  -3  -5  477.59   10.71
   3   3   5  484.35    9.32
   3   3   5  477.57    9.25
   3   3   5  483.43    8.37
  -3  -3  -5  473.71   10.62
  -3  -3  -5  474.49   10.21
  -3  -3  -6  519.16   12.04
   3   3   6  501.16    9.72
   3   3   6  481.95    9.78
  -3  -3  -6  506.39   11.70
   3   3   6  493.33    9.47
  -3  -3  -6  490.40   11.81
  -3  -3  -7   53.84    4.17
  -3  -3  -7   59.50    4.44
  -3  -3  -7   59.98    4.52
  -3  -3  -8   70.07    5.05
  -3  -3  -8   80.46    5.64
   3   3   8   74.27    3.18
  -3  -3  -8   71.73    5.29
   3   3   8   77.23    3.26
   3   3   8   76.70    3.17
   3   3   8   77.43    3.18
   3   3   8   74.77    3.14
   3   3   9    2.60    0.75
   3   3   9    2.93    0.73
   3   3   9    2.66    0.79
  -3  -3  -9    2.49    0.66
   3   3   9    3.09    0.67
   3   3   9    2.85    0.75
   3   3   9    2.18    0.73
  -3  -3 -10  466.33    7.65
   3   3  10  460.36    7.40
   3   3  10  456.36    7.89
  -3  -3 -10  477.75    7.28
   3   3  10  457.82    7.43
   3   3  10  466.23    7.89
   3   3  10  458.50    8.09
   3   3  10  459.42    8.07
  -3  -3 -11   90.78    3.20
  -3  -3 -11   89.41    3.15
   3   3  11   87.37    3.03
   3   3  11   87.97    3.27
  -3  -3 -11   87.78    2.87
   3   3  11   86.29    3.01
   3   3  11   85.77    3.14
   3   3  11   89.29    3.39
   3   3  11   91.33    3.43
   3   3  12    0.70    0.56
  -3  -3 -12   -0.12    0.39
  -3  -3 -12   -0.10    0.34
   3   3  12    0.36    0.38
   3   3  12    0.33    0.45
  -3  -3 -12   -0.58    0.48
   3   3  12    0.57    0.43
   3   3  12    0.19    0.37
  -3  -3 -12    0.28    0.48
   3   3  12   -0.27    0.45
  -3  -3 -13    6.33    0.58
   3   3  13    7.97    0.73
  -3  -3 -13    7.67    0.73
   3   3  13    8.15    0.76
  -3  -3 -13    7.33    0.60
  -3  -3 -13    8.30    0.73
  -3  -4  10   16.99    0.94
   3   4 -10   16.44    0.92
   3   4 -10   20.11    1.17
  -3  -4  10   19.34    1.08
   3   4 -10   20.11    1.14
   3   4 -10   17.03    0.95
  -3  -4  10   20.50    1.14
   3   4 -10   19.15    1.07
   3   4  -9   12.92    1.19
  -3  -4   9   14.33    1.15
   3   4  -9   13.47    1.00
   3   4  -9   11.98    1.08
  -3  -4   9   10.89    0.91
  -3  -4   9   14.35    1.19
   3   4  -9   14.49    1.25
   3   4  -9   13.60    1.16
  -3  -4   9   13.57    1.06
  -3  -4   9   14.06    1.20
   3   4  -9   14.33    0.99
   3   4  -9   16.02    1.27
  -3  -4   8  517.10    7.55
   3   4  -8  499.04    7.56
  -3  -4   8  510.03    6.93
  -3  -4   8  507.62    7.52
   3   4  -8  507.86    7.95
   3   4  -8  511.75    7.70
   3   4  -8  510.76    8.00
  -3  -4   8  492.00    7.55
   3   4  -8  508.76    6.91
   3   4  -8  503.30    7.77
   3   4  -7  652.56    9.23
  -3  -4   7  645.76    8.55
  -3  -4   7  664.25    8.99
   3   4  -7  620.81    9.37
   3   4  -7  625.11    9.10
   3   4  -7  631.98    9.41
  -3  -4   7  646.25    8.99
   3   4  -7  631.35    8.39
   3   4  -7  628.48    9.28
   3   4  -6  370.40    7.01
   3   4  -6  355.15    7.06
  -3  -4   6  378.85    6.74
   3   4  -6  360.08    7.12
   3   4  -6  358.20    7.01
  -3  -4   6  363.86    6.73
   3   4  -6  357.01    6.46
   3   4  -6  373.40    7.14
  -3  -4   5  715.98   16.12
   3   4  -5  737.83    9.61
   3   4  -5  733.61    9.74
  -3  -4   5  735.89   16.41
   3   4  -5  733.38   16.04
   3   4  -5  726.04   15.66
  -3  -4   5  728.17   15.24
   3   4  -5  711.48   15.52
  -3  -4   5  753.01    9.14
  -3  -4   5  734.39   15.48
  -3  -4   5  699.96   15.01
  -3  -4   5  740.64   15.29
   3   4  -5  725.53    9.82
   3   4  -5  729.71   15.56
  -3  -4   5  722.71   15.25
   3   4  -5  748.03    9.74
  -3  -4   5  718.88   16.64
   3   4  -5  717.21   16.25
  -3  -4   5  758.98    9.34
   3   4  -5  745.17    9.11
   3   4  -5  750.50    9.89
   3   4  -5  771.44   16.04
  -3  -4   4  264.82    9.31
   3   4  -4  283.04    8.47
   3   4  -4  277.95    9.37
   3   4  -4  280.88    9.26
   3   4  -4  274.12    8.94
  -3  -4   4  267.54    8.60
   3   4  -4  265.69    8.79
  -3  -4   4  276.41    8.84
  -3  -4   4  275.02    8.62
  -3  -4   4  280.05    8.74
   3   4  -4  277.87    8.91
   3   4  -4  264.21    8.99
  -3  -4   4  274.41    8.16
  -3  -4   4  282.03    8.78
  -3  -4   4  269.25    9.57
   3   4  -4  266.89    8.70
  -3  -4   4  283.15    9.58
   3   4  -3  434.06   10.34
   3   4  -3  408.31   10.43
   3   4  -3  422.18   10.58
   3   4  -3  421.63   10.34
   3   4  -3  420.21   10.06
  -3  -4   3  404.17    9.69
   3   4  -3  426.52   10.15
  -3  -4   3  415.66   10.09
  -3  -4   3  433.55    9.90
  -3  -4   3  428.75    9.87
   3   4  -3  422.51   10.02
   3   4  -3  412.72   10.34
  -3  -4   3  431.19    9.92
  -3  -4   3  432.61   11.32
  -3  -4   3  411.76    9.92
  -3  -4   3  456.29   11.36
  -3  -4   3  405.74   10.82
   3   4  -3  417.77    9.93
   3   4  -2  703.30   12.71
   3   4  -2  693.53   12.24
   3   4  -2  693.68   11.98
   3   4  -2  681.83   11.66
   3   4  -2  684.91   11.55
  -3  -4   2  675.71   11.26
   3   4  -2  683.77   11.56
  -3  -4   2  694.22   11.77
  -3  -4   2  684.13   11.49
  -3  -4   2  678.57   11.30
  -3  -4   2  682.55   11.28
   3   4  -2  695.29   11.57
  -3  -4   2  685.02   11.42
  -3  -4   2  684.01   13.34
  -3  -4   2  678.73   12.99
  -3  -4   2  667.85   12.93
   3   4  -2  624.64   11.79
   3   4  -2  648.70   11.18
   3   4  -1    5.91    1.00
   3   4  -1    5.65    1.29
   3   4  -1    5.60    1.07
   3   4  -1    6.00    1.09
   3   4  -1    5.96    1.06
  -3  -4   1    6.66    1.37
   3   4  -1    5.54    1.04
  -3  -4   1    6.24    1.06
   3   4  -1    6.38    1.08
  -3  -4   1    6.34    1.33
  -3  -4   1    5.35    1.01
  -3  -4   1    5.79    1.04
  -3  -4   1    5.03    0.96
  -3  -4   1    5.57    0.98
   3   4  -1    6.61    1.08
  -3  -4   1    4.29    0.95
  -3  -4   1    4.47    1.20
   3   4  -1    4.65    1.03
   3   4   0 1568.74   17.94
   3   4   0 1566.21   14.73
   3   4   0 1550.04   14.32
   3   4   0 1538.35   14.04
   3   4   0 1543.54   14.12
  -3  -4   0 1514.61   14.98
  -3  -4   0 1530.62   13.84
   3   4   0 1500.64   13.85
  -3  -4   0 1531.40   14.45
  -3  -4   0 1563.54   14.26
  -3  -4   0 1576.34   14.00
  -3  -4   0 1589.69   14.18
  -3  -4   0 1534.71   17.76
   3   4   0 1523.03   13.92
  -3  -4   0 1510.59   13.85
  -3  -4   0 1477.74   17.54
   3   4   0 1526.82   15.20
   3   4   0 1524.18   13.14
   3   4   1 2202.39   15.39
  -3  -4  -1 2164.52   18.81
   3   4   1 2189.57   20.90
   3   4   1 2189.23   15.68
   3   4   1 2178.29   15.36
   3   4   1 2182.74   15.36
  -3  -4  -1 2126.23   14.92
  -3  -4  -1 2196.24   16.25
  -3  -4  -1 2208.86   15.83
  -3  -4  -1 2207.14   15.48
  -3  -4  -1 2147.84   20.65
   3   4   1 2079.71   15.83
  -3  -4  -1 2140.87   15.08
   3   4   1 2214.80   15.41
  -3  -4  -1 2093.91   15.02
  -3  -4  -1 2148.66   20.59
   3   4   1 2090.65   16.90
  -3  -4  -2  610.64   10.59
   3   4   2  657.77   11.33
   3   4   2  612.38    7.85
   3   4   2  593.52    7.73
   3   4   2  599.33    7.76
   3   4   2  610.22    7.81
  -3  -4  -2  621.45    7.68
  -3  -4  -2  604.05    8.13
  -3  -4  -2  618.39    7.92
  -3  -4  -2  598.13   10.93
  -3  -4  -2  611.38    7.72
   3   4   2  630.18    7.99
  -3  -4  -2  618.12    7.65
  -3  -4  -2  597.42    8.23
   3   4   2  584.74    7.73
  -3  -4  -2  612.62    9.26
  -3  -4  -3  938.65   13.95
   3   4   3 1004.79   13.99
  -3  -4  -3  978.05   11.53
   3   4   3  908.15   11.21
  -3  -4  -3  947.83   12.82
  -3  -4  -4   30.55    2.73
   3   4   4   34.58    2.66
  -3  -4  -4   29.03    2.35
   3   4   4   31.89    2.43
   3   4   4   32.61    2.26
  -3  -4  -4   31.59    2.62
  -3  -4  -5  375.95   10.05
   3   4   5  388.82    8.78
  -3  -4  -5  391.20    9.42
   3   4   5  371.28    8.37
   3   4   5  381.35    8.19
  -3  -4  -5  389.00    9.97
  -3  -4  -6  755.16   15.15
   3   4   6  773.30   12.71
  -3  -4  -6  757.62   15.19
  -3  -4  -7    1.34    0.88
  -3  -4  -7    0.74    0.82
  -3  -4  -7    1.45    0.99
   3   4   7    0.82    0.56
  -3  -4  -8   64.11    4.98
  -3  -4  -8   68.19    5.21
   3   4   8   71.21    3.08
   3   4   8   65.14    3.01
  -3  -4  -8   61.79    5.09
   3   4   8   66.39    3.04
   3   4   8   66.46    2.93
   3   4   8   66.49    2.93
   3   4   9   22.45    1.86
   3   4   9   22.84    1.87
   3   4   9   22.57    1.85
   3   4   9   19.12    1.69
   3   4   9   23.61    1.84
   3   4  10  105.24    3.78
   3   4  10  110.68    3.95
  -3  -4 -10  114.12    3.69
   3   4  10  105.08    3.91
   3   4  10  108.19    3.87
   3   4  10  102.76    3.81
   3   4  10  113.25    3.96
  -3  -4 -11   25.51    1.78
  -3  -4 -11   26.88    1.79
   3   4  11   22.55    1.70
   3   4  11   22.40    1.68
  -3  -4 -11   25.05    1.63
   3   4  11   24.42    1.73
   3   4  11   23.07    1.77
   3   4  11   25.08    1.82
  -3  -4 -12   24.29    1.51
  -3  -4 -12   23.64    1.45
   3   4  12   23.91    1.53
  -3  -4 -12   22.96    1.52
  -3  -4 -12   21.96    1.31
   3   4  12   22.40    1.41
   3   4  12   26.16    1.64
   3   4  12   23.10    1.54
  -3  -4 -13   57.77    1.74
  -3  -4 -13   56.75    1.67
   3   4  13   54.49    1.77
  -3  -4 -13   56.53    1.82
   3   4  13   50.25    1.43
   3   4  13   55.73    1.85
  -3  -4 -13   52.80    1.61
  -3  -5   9   42.64    1.62
   3   5  -9   35.56    1.26
   3   5  -9   43.21    1.75
  -3  -5   9   37.11    1.24
  -3  -5   9   43.41    1.55
   3   5  -9   43.18    1.74
  -3  -5   9   37.80    1.38
  -3  -5   9   42.57    1.63
   3   5  -9   41.06    1.68
  -3  -5   8  121.39    3.35
   3   5  -8  116.96    3.07
  -3  -5   8  118.17    3.04
  -3  -5   8  122.51    3.20
   3   5  -8  119.51    3.53
   3   5  -8  118.90    3.19
  -3  -5   8  120.31    3.16
   3   5  -8  116.84    3.50
   3   5  -8  120.15    2.84
  -3  -5   8  118.51    3.27
   3   5  -8  121.78    3.51
  -3  -5   7   11.42    1.27
   3   5  -7   11.75    1.19
   3   5  -7   13.08    1.39
  -3  -5   7   12.47    1.28
  -3  -5   7   13.20    1.22
   3   5  -7   10.90    1.30
   3   5  -7   13.34    1.26
  -3  -5   7   13.27    1.28
   3   5  -7   12.11    1.14
   3   5  -7   12.22    1.35
  -3  -5   6    0.53    0.53
   3   5  -6    0.33    0.49
   3   5  -6    0.18    0.52
   3   5  -6    0.26    0.41
  -3  -5   6    0.39    0.43
   3   5  -6    0.75    0.64
   3   5  -6    0.83    0.58
  -3  -5   6    1.01    0.52
   3   5  -6    0.41    0.47
   3   5  -6    0.40    0.57
  -3  -5   5   10.04    1.21
   3   5  -5   11.86    1.29
   3   5  -5    8.74    1.18
   3   5  -5   10.29    1.21
  -3  -5   5   10.67    1.11
   3   5  -5    9.68    1.22
   3   5  -5    9.15    1.22
  -3  -5   5   10.10    1.15
   3   5  -5    9.28    1.06
   3   5  -5    9.28    1.25
  -3  -5   4  467.18   13.48
  -3  -5   4  489.87    7.66
  -3  -5   4  458.06   13.03
   3   5  -4  462.28   12.82
   3   5  -4  472.13    7.56
   3   5  -4  462.30    7.60
   3   5  -4  478.02   13.35
   3   5  -4  483.25    8.02
   3   5  -4  466.16    7.54
   3   5  -4  471.26   12.75
   3   5  -4  459.21   12.50
  -3  -5   4  456.87   12.14
   3   5  -4  459.61   12.47
  -3  -5   4  466.44   12.80
  -3  -5   4  467.02   12.51
  -3  -5   4  484.64   12.55
  -3  -5   4  466.92   12.23
   3   5  -4  475.18    8.00
   3   5  -4  468.03   12.52
   3   5  -4  481.87    7.78
  -3  -5   4  479.27   12.45
  -3  -5   4  470.02   13.68
  -3  -5   4  482.01    7.25
   3   5  -4  472.91    7.31
   3   5  -4  461.18    7.90
   3   5  -4  455.52   12.21
   3   5  -3   15.61    2.37
   3   5  -3   16.37    2.42
   3   5  -3   15.04    2.25
   3   5  -3   16.69    2.31
   3   5  -3   15.71    2.26
  -3  -5   3   14.15    2.06
   3   5  -3   13.76    2.12
  -3  -5   3   13.85    2.10
  -3  -5   3   16.10    2.22
  -3  -5   3   18.06    2.33
  -3  -5   3   14.13    2.06
   3   5  -3   16.44    2.27
   3   5  -3   18.02    2.34
  -3  -5   3   16.76    2.25
  -3  -5   3   16.45    2.49
  -3  -5   3   17.06    2.59
   3   5  -3   14.23    2.06
  -3  -5   3   15.86    2.37
   3   5  -2 1420.56   19.53
   3   5  -2 1438.26   20.96
   3   5  -2 1410.42   19.79
   3   5  -2 1432.75   19.12
   3   5  -2 1451.16   19.16
  -3  -5   2 1414.67   18.53
   3   5  -2 1458.35   19.12
  -3  -5   2 1450.03   19.53
  -3  -5   2 1432.87   18.99
  -3  -5   2 1399.97   18.50
  -3  -5   2 1428.48   18.67
   3   5  -2 1436.22   18.89
  -3  -5   2 1420.11   18.74
  -3  -5   2 1356.00   21.20
  -3  -5   2 1381.73   20.64
  -3  -5   2 1370.11   21.01
   3   5  -2 1359.83   19.44
   3   5  -2 1351.06   18.04
   3   5  -1  996.06   16.90
   3   5  -1  973.28   15.13
   3   5  -1  958.31   14.69
   3   5  -1  999.11   14.76
  -3  -5   1  972.53   14.33
   3   5  -1  976.38   14.47
  -3  -5   1  982.95   14.93
  -3  -5   1 1011.86   14.86
  -3  -5   1  971.80   14.38
  -3  -5   1 1000.06   14.58
   3   5  -1  980.99   14.49
  -3  -5   1  965.84   16.40
  -3  -5   1  980.90   14.51
  -3  -5   1  961.34   16.84
  -3  -5   1  973.39   16.78
   3   5  -1  982.29   14.61
   3   5  -1 1025.16   15.71
   3   5  -1  911.08   13.36
  -3  -5   0  534.40   10.65
   3   5   0  550.55   12.19
  -3  -5   0  539.11   10.37
   3   5   0  553.75   10.46
   3   5   0  557.45   10.37
   3   5   0  542.56   10.11
   3   5   0  545.38   10.17
  -3  -5   0  537.89    9.89
  -3  -5   0  540.62   10.36
  -3  -5   0  539.08   10.15
  -3  -5   0  500.17   11.42
   3   5   0  541.60   10.57
  -3  -5   0  549.47   10.07
   3   5   0  543.34   10.11
  -3  -5   0  550.64   10.13
  -3  -5   0  522.60   11.86
  -3  -5   0  507.33   11.76
   3   5   0  537.22   10.69
  -3  -5  -1 2760.25   24.76
   3   5   1 2905.13   27.42
   3   5   1 2896.05   22.08
   3   5   1 2938.03   22.09
   3   5   1 2891.81   21.89
   3   5   1 2889.66   22.07
  -3  -5  -1 2806.80   21.29
  -3  -5  -1 2848.91   23.05
  -3  -5  -1 2820.84   22.10
  -3  -5  -1 2861.05   21.92
   3   5   1 2844.93   22.80
  -3  -5  -1 2818.16   21.48
  -3  -5  -1 2758.49   26.53
   3   5   1 2910.84   22.05
  -3  -5  -1 2839.66   21.72
  -3  -5  -1 2629.39   26.18
   3   5   1 2746.75   23.08
  -3  -5  -2 1021.77   15.50
   3   5   2 1022.05   16.04
   3   5   2  976.53   12.47
   3   5   2 1002.91   12.56
   3   5   2 1031.26   12.73
   3   5   2 1009.43   12.66
  -3  -5  -2  995.30   13.18
  -3  -5  -2 1007.34   15.94
   3   5   2 1032.47   13.06
  -3  -5  -2  997.90   12.35
   3   5   2 1000.14   12.60
  -3  -5  -2  999.50   15.99
   3   5   2  996.68   13.76
  -3  -5  -3  731.51   13.77
  -3  -5  -3  699.69   13.36
   3   5   3  683.08   11.53
  -3  -5  -3  730.17   12.19
  -3  -5  -4  199.69    7.54
  -3  -5  -4  194.91    7.26
   3   5   4  193.46    6.30
  -3  -5  -4  190.47    6.83
  -3  -5  -5   16.52    2.38
   3   5   5   16.57    2.04
  -3  -5  -5   22.04    2.37
   3   5   5   16.17    1.94
  -3  -5  -5   17.06    2.26
  -3  -5  -6   98.15    5.86
  -3  -5  -6   99.98    5.51
   3   5   6   93.57    4.83
  -3  -5  -6   99.04    5.75
   3   5   7  259.82    5.87
  -3  -5  -7  257.08    9.94
   3   5   7  271.97    5.75
  -3  -5  -7  252.53    9.47
   3   5   7  268.53    5.93
   3   5   7  261.96    5.86
   3   5   7  255.54    8.40
  -3  -5  -7  264.03   10.04
   3   5   7  274.75    5.96
   3   5   8   -0.74    0.51
   3   5   8    1.86    0.54
  -3  -5  -8   -3.15    1.20
  -3  -5  -8   -0.05    0.62
   3   5   8   -0.15    0.41
   3   5   8    0.36    0.44
   3   5   8   -0.16    0.45
  -3  -5  -8    2.54    1.29
   3   5   8    0.19    0.49
   3   5   8    0.22    0.40
   3   5   9  268.33    5.82
  -3  -5  -9  290.39    5.72
   3   5   9  283.27    6.44
   3   5   9  277.59    6.33
   3   5   9  264.80    5.96
   3   5   9  276.07    5.99
   3   5  10  180.16    4.68
  -3  -5 -10  189.15    4.36
   3   5  10  182.04    5.05
  -3  -5 -10  187.60    4.80
   3   5  10  180.27    5.03
   3   5  10  181.98    4.97
   3   5  10  172.48    4.77
   3   5  10  176.36    4.76
  -3  -5 -11  323.20    6.09
   3   5  11  311.77    5.71
   3   5  11  311.96    6.08
  -3  -5 -11  317.81    5.72
   3   5  11  320.19    6.03
   3   5  11  303.98    5.91
   3   5  11  308.69    5.89
   3   5  12    0.23    0.44
  -3  -5 -12    0.51    0.37
  -3  -5 -12    0.35    0.45
   3   5  12    0.43    0.41
  -3  -5 -12    0.72    0.38
   3   5  12    0.07    0.37
   3   5  12    0.14    0.45
  -3  -5 -13    8.40    0.73
  -3  -5 -13    9.20    0.69
   3   5  13    7.27    0.65
  -3  -5 -13    9.58    0.78
   3   5  13    8.59    0.60
   3   5  13   10.17    0.80
  -3  -6   8  112.76    2.62
  -3  -6   8  106.04    2.31
   3   6  -8  109.06    2.70
  -3  -6   8  103.80    2.35
   3   6  -8  107.97    2.70
  -3  -6   8  104.30    2.33
   3   6  -8  107.43    2.68
  -3  -6   7   10.68    0.91
  -3  -6   7   12.10    1.12
  -3  -6   7   10.37    1.01
   3   6  -7   13.14    1.04
  -3  -6   7   10.44    0.87
   3   6  -7   11.63    1.16
  -3  -6   7   10.47    1.01
   3   6  -7   11.21    1.15
   3   6  -7   12.52    0.92
  -3  -6   7   10.45    0.96
   3   6  -7   10.87    1.12
  -3  -6   6    4.04    0.75
  -3  -6   6    3.77    0.82
   3   6  -6    3.47    0.67
   3   6  -6    3.27    0.76
  -3  -6   6    2.86    0.73
   3   6  -6    3.77    0.73
   3   6  -6    3.66    0.81
  -3  -6   6    4.37    0.78
   3   6  -6    2.52    0.64
  -3  -6   6    2.38    0.59
   3   6  -6    3.89    0.67
   3   6  -6    4.22    0.87
  -3  -6   5    0.12    0.49
   3   6  -5    0.36    0.39
   3   6  -5    1.25    0.71
  -3  -6   5    1.44    0.76
   3   6  -5    0.07    0.44
   3   6  -5    0.20    0.47
   3   6  -5    0.10    0.61
  -3  -6   5    0.43    0.50
   3   6  -5    1.29    0.57
  -3  -6   5   -0.16    0.38
   3   6  -5    1.20    0.52
   3   6  -5    0.52    0.58
  -3  -6   4  224.54    5.27
   3   6  -4  214.09    5.00
  -3  -6   4  218.00    5.20
   3   6  -4  208.61    5.32
   3   6  -4  206.54    5.26
   3   6  -4  209.80    5.46
   3   6  -4  207.01    5.19
   3   6  -4  210.33    5.49
   3   6  -4  209.63    4.93
   3   6  -4  211.14    5.47
  -3  -6   3    5.56    0.87
   3   6  -3    5.46    0.88
   3   6  -3    5.73    0.98
  -3  -6   3    8.07    1.15
   3   6  -3    5.10    0.93
   3   6  -3    6.55    1.03
   3   6  -3    4.92    0.94
   3   6  -3    5.03    0.86
   3   6  -3    5.83    0.90
   3   6  -3    6.89    1.06
  -3  -6   2  166.19    4.30
   3   6  -2  171.72    4.42
   3   6  -2  176.19    4.84
   3   6  -2  179.60    8.33
  -3  -6   2  174.68    4.47
   3   6  -2  166.68    4.73
   3   6  -2  172.25    7.54
   3   6  -2  171.78    7.45
   3   6  -2  158.67    4.67
   3   6  -2  162.41    7.15
   3   6  -2  172.92    7.41
  -3  -6   2  180.25    7.40
  -3  -6   2  172.35    7.54
  -3  -6   2  169.69    7.36
  -3  -6   2  169.58    7.20
   3   6  -2  174.88    4.81
   3   6  -2  168.21    7.27
   3   6  -2  177.49    4.68
  -3  -6   2  174.53    7.33
  -3  -6   2  166.95    8.13
  -3  -6   2  161.36    7.67
  -3  -6   2  171.67    8.19
   3   6  -2  167.59    4.38
   3   6  -2  161.14    7.45
   3   6  -2  169.25    4.73
   3   6  -1  383.62    6.91
   3   6  -1  376.06   11.80
   3   6  -1  367.58    6.79
   3   6  -1  387.20   10.80
   3   6  -1  371.06   10.40
   3   6  -1  355.19    6.83
   3   6  -1  352.41   10.05
  -3  -6   1  378.45   10.20
  -3  -6   1  363.97   10.78
  -3  -6   1  368.41   10.56
  -3  -6   1  366.24   10.30
   3   6  -1  353.71   10.51
  -3  -6   1  397.28   10.43
   3   6  -1  363.94    6.74
   3   6  -1  360.35   10.12
  -3  -6   1  368.52   10.10
  -3  -6   1  363.42    6.14
  -3  -6   1  348.99   10.95
  -3  -6   1  353.94   11.44
  -3  -6   1  372.90   11.63
   3   6  -1  359.77   10.17
   3   6  -1  368.52   10.73
   3   6  -1  373.39    6.32
   3   6  -1  354.94    6.62
   3   6   0   52.39    4.34
   3   6   0   47.83    3.60
   3   6   0   46.62    3.51
   3   6   0   45.10    3.46
   3   6   0   46.80    3.49
  -3  -6   0   47.07    3.44
  -3  -6   0   47.33    3.68
  -3  -6   0   46.27    3.54
  -3  -6   0   41.19    3.35
   3   6   0   43.46    3.51
  -3  -6   0   46.93    3.43
  -3  -6   0   41.89    3.73
   3   6   0   49.05    3.54
  -3  -6   0   44.39    3.37
  -3  -6   0   46.71    4.06
  -3  -6   0   41.48    3.75
   3   6   0   41.29    3.50
   3   6   1    1.43    0.80
   3   6   1    1.99    0.91
  -3  -6  -1    3.74    1.16
   3   6   1    3.37    1.08
  -3  -6  -1    3.96    1.26
  -3  -6  -1    0.26    0.73
   3   6   1    2.85    1.22
   3   6   1    3.78    1.04
  -3  -6  -2   70.45    4.63
   3   6   2   72.18    4.82
  -3  -6  -2   67.09    4.62
  -3  -6  -2   70.95    4.85
   3   6   2   73.90    4.35
  -3  -6  -3  215.34    8.32
   3   6   3  225.80    8.30
  -3  -6  -3  208.64    8.10
  -3  -6  -3  208.71    8.34
   3   6   3  211.96    7.38
  -3  -6  -4  490.67   12.99
  -3  -6  -4  453.54   12.09
   3   6   4  487.96   11.36
  -3  -6  -4  493.62   11.76
   3   6   5   21.22    2.40
   3   6   5   14.63    1.40
  -3  -6  -5   15.26    2.34
  -3  -6  -5   15.48    2.45
   3   6   5   15.94    1.48
  -3  -6  -5   14.85    2.22
   3   6   5   13.40    1.98
   3   6   6  398.85    6.46
   3   6   6  410.31    7.43
  -3  -6  -6  414.61   12.85
   3   6   6  434.71    7.53
   3   6   6  448.48    7.66
  -3  -6  -6  398.13   11.88
   3   6   6  407.75    7.44
   3   6   6  401.11    7.27
   3   6   6  400.00   10.90
  -3  -6  -6  408.91   12.26
   3   6   6  412.31    7.22
   3   6   7  236.09    5.74
  -3  -6  -7  229.05    9.85
   3   6   7  239.47    5.62
  -3  -6  -7  222.58    9.09
   3   6   7  238.72    5.75
   3   6   7  226.66    5.65
   3   6   7  223.59    8.37
  -3  -6  -7  230.58    9.70
   3   6   7  231.35    5.61
  -3  -6  -8   43.43    2.25
   3   6   8   44.42    2.56
   3   6   8   47.92    2.47
   3   6   8   43.19    2.49
   3   6   8   45.17    2.59
   3   6   8   46.33    2.58
  -3  -6  -9   31.91    1.86
   3   6   9   30.33    2.05
  -3  -6  -9   35.29    2.09
   3   6   9   34.78    2.28
   3   6   9   29.59    2.10
   3   6   9   30.85    1.95
   3   6   9   31.85    2.01
   3   6  10   48.02    2.19
  -3  -6 -10   50.66    2.32
   3   6  10   51.33    2.64
   3   6  10   48.70    2.58
   3   6  10   50.25    2.40
   3   6  10   50.08    2.39
  -3  -6 -11   22.56    1.61
   3   6  11   23.24    1.37
  -3  -6 -11   21.96    1.35
   3   6  11   22.98    1.64
  -3  -6 -11   23.84    1.57
   3   6  11   24.17    1.69
   3   6  11   22.42    1.57
   3   6  11   25.04    1.57
   3   6  11   22.60    1.49
   3   6  12    0.81    0.43
  -3  -6 -12    0.48    0.44
   3   6  12    0.64    0.36
   3   6  12    0.89    0.43
  -3  -6 -12    1.09    0.43
  -3  -6 -12    1.08    0.45
   3   6  12    1.11    0.46
   3   6  12    0.64    0.46
  -3  -6 -13   57.74    1.50
  -3  -7   7   68.87    1.92
  -3  -7   7   67.32    1.81
   3   7  -7   65.58    1.94
  -3  -7   7   66.37    1.79
   3   7  -7   65.03    1.93
  -3  -7   6   26.42    1.37
  -3  -7   6   28.77    1.53
   3   7  -6   25.03    1.54
  -3  -7   6   29.27    1.52
   3   7  -6   27.34    1.46
   3   7  -6   25.69    1.30
   3   7  -6   28.13    1.60
  -3  -7   6   28.74    1.52
   3   7  -6   27.27    1.23
   3   7  -6   26.71    1.57
  -3  -7   5   22.18    1.50
  -3  -7   5   18.08    1.39
  -3  -7   5   19.12    1.23
  -3  -7   5   17.12    1.36
   3   7  -5   19.41    1.46
   3   7  -5   18.50    1.40
   3   7  -5   17.81    1.46
  -3  -7   5   20.42    1.49
   3   7  -5   20.36    1.60
   3   7  -5   18.81    1.27
   3   7  -5   22.73    1.63
  -3  -7   4   81.19    3.06
  -3  -7   4   78.33    2.96
  -3  -7   4   82.99    2.90
   3   7  -4   79.65    3.23
  -3  -7   4   81.13    3.03
   3   7  -4   78.23    3.14
   3   7  -4   80.93    3.18
   3   7  -4   79.17    3.19
  -3  -7   4   79.56    3.00
   3   7  -4   78.44    2.83
   3   7  -4   82.53    3.23
  -3  -7   3  177.24    4.67
  -3  -7   3  179.23    4.53
   3   7  -3  172.63    4.92
  -3  -7   3  175.03    4.56
   3   7  -3  172.67    4.87
   3   7  -3  175.22    4.93
   3   7  -3  175.09    4.89
  -3  -7   3  182.06    4.66
   3   7  -3  180.74    4.50
   3   7  -3  169.37    4.78
  -3  -7   2  177.69    4.45
   3   7  -2  173.52    4.98
   3   7  -2  172.27    4.95
   3   7  -2  166.95    4.93
   3   7  -2  174.44    4.91
  -3  -7   2  174.59    4.59
  -3  -7   2  171.45    4.49
   3   7  -2  181.17    4.61
   3   7  -2  168.37    4.79
  -3  -7   1   29.91    1.85
   3   7  -1   29.20    2.08
   3   7  -1   29.17    2.11
   3   7  -1   31.93    2.11
  -3  -7   1   31.31    1.92
   3   7  -1   29.98    1.91
   3   7  -1   30.51    2.05
  -3  -7   0  121.90    3.80
   3   7   0  115.11    3.77
  -3  -7   0  117.22    3.47
   3   7   0  117.55    4.10
   3   7   0  117.06    4.11
   3   7   0  121.14    4.07
  -3  -7   0  112.62    6.55
  -3  -7   0  117.52    3.58
  -3  -7   0  113.64    6.89
  -3  -7   0  110.41    6.64
   3   7   0  109.37    6.28
   3   7   0  115.30    3.70
   3   7   0  117.49    3.93
  -3  -7  -1  591.04    8.16
   3   7   1  562.19    8.43
   3   7   1  596.41   15.54
   3   7   1  576.21    8.93
   3   7   1  583.39    9.06
   3   7   1  569.80    8.48
  -3  -7  -1  545.54   14.41
   3   7   1  590.19    8.83
  -3  -7  -1  554.25   14.87
  -3  -7  -1  558.64   14.72
   3   7   1  545.98   13.68
   3   7   1  606.77    8.35
   3   7   1  576.88    8.52
  -3  -7  -2  213.89    4.76
   3   7   2  195.46    5.09
   3   7   2  227.60    9.43
   3   7   2  203.80    5.28
  -3  -7  -2  193.40    8.41
   3   7   2  208.37    5.40
   3   7   2  202.89    5.18
  -3  -7  -2  198.22    8.58
  -3  -7  -2  196.70    8.80
   3   7   2  202.28    8.16
   3   7   2  232.59    5.20
   3   7   2  214.79    5.15
   3   7   3    0.20    0.47
   3   7   3    1.65    0.98
   3   7   3    0.73    0.49
   3   7   3    0.02    0.52
  -3  -7  -3   -2.97    1.18
  -3  -7  -3   -0.40    0.92
   3   7   3    0.17    0.42
  -3  -7  -3   -2.09    1.16
   3   7   3    1.59    0.58
   3   7   3    0.08    0.32
   3   7   3    0.64    0.54
   3   7   3   -0.19    0.39
   3   7   4   95.09    3.61
   3   7   4  102.06    5.99
   3   7   4  100.02    3.74
  -3  -7  -4   97.88    6.32
   3   7   4   95.81    3.66
   3   7   4   95.04    3.65
  -3  -7  -4   86.44    5.65
  -3  -7  -4   91.03    6.08
   3   7   4   98.38    5.67
   3   7   4   97.48    3.38
  -3  -7  -5    3.11    0.70
   3   7   5    2.31    0.73
   3   7   5    4.36    0.91
  -3  -7  -5    5.06    1.51
  -3  -7  -5    4.43    1.65
   3   7   5    3.62    0.84
   3   7   5    2.40    0.65
  -3  -7  -5    3.83    1.49
   3   7   5    2.91    0.63
   3   7   5    4.10    0.85
   3   7   5    2.68    0.63
   3   7   5    2.14    0.95
   3   7   6  496.41    8.41
   3   7   6  510.09    8.37
   3   7   6  514.26    8.57
   3   7   6  496.87    8.46
   3   7   6  484.43    8.06
   3   7   6  473.79    7.90
  -3  -7  -7  154.47    4.08
   3   7   7  148.83    4.64
   3   7   7  155.73    4.61
   3   7   7  147.95    4.63
   3   7   7  147.66    4.57
   3   7   7  153.14    4.58
  -3  -7  -8    6.27    0.95
   3   7   8    5.00    0.98
   3   7   8    5.42    0.89
   3   7   8    5.94    1.02
   3   7   8    5.82    1.00
   3   7   8    6.53    1.05
  -3  -7  -9   27.54    1.72
   3   7   9   27.23    1.67
   3   7   9   26.60    1.88
  -3  -7  -9   27.13    1.82
   3   7   9   26.06    1.92
   3   7   9   27.18    1.93
  -3  -7 -10  242.13    4.41
  -3  -7 -10  253.47    4.92
   3   7  10  236.70    5.25
   3   7  10  243.15    5.26
  -3  -7 -11   35.17    1.73
  -3  -7 -11   35.79    1.60
   3   7  11   34.75    1.80
  -3  -7 -11   36.76    1.78
   3   7  11   33.52    1.78
   3   7  11   34.17    1.75
   3   7  11   33.35    1.47
   3   7  11   33.06    1.45
  -3  -7 -12   34.10    1.36
  -3  -7 -12   30.93    1.36
   3   7  12   32.34    1.41
  -3  -7 -12   34.43    1.38
   3   7  12   32.28    1.32
  -3  -8   6   24.50    0.94
  -3  -8   6   23.78    0.93
  -3  -8   5  183.53    3.22
  -3  -8   5  188.13    3.26
  -3  -8   5  187.84    3.36
   3   8  -5  184.83    3.37
   3   8  -5  179.32    3.17
   3   8  -5  185.52    3.47
  -3  -8   5  184.52    3.36
   3   8  -5  182.58    3.40
  -3  -8   4    4.74    0.74
  -3  -8   4    6.23    0.77
  -3  -8   4    5.83    0.72
  -3  -8   4    4.51    0.70
   3   8  -4    4.20    0.74
   3   8  -4    4.63    0.73
   3   8  -4    6.03    0.84
  -3  -8   4    4.43    0.71
   3   8  -4    4.46    0.63
   3   8  -4    4.92    0.73
  -3  -8   3    0.06    0.50
  -3  -8   3    0.83    0.40
  -3  -8   3    0.23    0.42
  -3  -8   3    0.63    0.47
   3   8  -3    0.36    0.48
   3   8  -3    0.00    0.49
   3   8  -3    0.12    0.44
  -3  -8   3    0.74    0.47
   3   8  -3    0.10    0.38
   3   8  -3    0.51    0.52
  -3  -8   2   15.57    1.38
  -3  -8   2   12.25    1.10
  -3  -8   2   18.72    1.49
  -3  -8   2   13.59    1.22
   3   8  -2   13.23    1.38
   3   8  -2   14.13    1.43
   3   8  -2   14.23    1.36
  -3  -8   2   15.28    1.32
   3   8  -2   15.77    1.33
   3   8  -2   13.68    1.33
  -3  -8   1   20.55    1.61
  -3  -8   1   22.24    1.69
   3   8  -1   20.52    1.75
  -3  -8   1   18.96    1.42
   3   8  -1   19.24    1.71
   3   8  -1   20.36    1.68
  -3  -8   1   20.40    1.53
   3   8  -1   20.77    1.56
   3   8  -1   18.98    1.57
  -3  -8   0  215.61    5.06
  -3  -8   0  225.99    5.21
   3   8   0  210.10    5.02
   3   8   0  217.01    5.58
   3   8   0  217.97    5.64
   3   8   0  215.43    5.34
  -3  -8   0  228.85    4.94
   3   8   0  221.12    5.11
   3   8   0  216.14    5.17
  -3  -8  -1   53.83    2.51
  -3  -8  -1   54.89    2.59
   3   8   1   52.59    2.63
   3   8   1   52.45    2.80
   3   8   1   55.03    2.87
   3   8   1   50.86    2.57
  -3  -8  -1   56.65    2.42
   3   8   1   52.15    2.55
   3   8   1   52.62    2.56
  -3  -8  -2   83.35    3.04
  -3  -8  -2   84.14    3.14
   3   8   2   82.55    3.36
   3   8   2   88.49    3.62
   3   8   2   85.50    3.55
   3   8   2   84.01    3.39
   3   8   2   88.64    3.39
   3   8   2   82.86    3.24
   3   8   2   83.26    3.21
  -3  -8  -3  164.91    4.27
   3   8   3  164.28    4.78
   3   8   3  174.13    5.03
   3   8   3  163.27    4.90
   3   8   3  158.49    4.74
   3   8   3  162.55    4.51
  -3  -8  -4  159.96    4.02
  -3  -8  -4  166.18    4.45
   3   8   4  159.01    4.73
   3   8   4  157.09    4.76
   3   8   4  157.81    4.76
   3   8   4  158.38    4.78
   3   8   4  155.81    4.30
  -3  -8  -5  350.86    6.27
   3   8   5  341.42    6.95
   3   8   5  348.57    7.03
   3   8   5  360.64    7.06
   3   8   5  345.70    7.07
   3   8   5  336.82    6.99
   3   8   5  340.79    6.11
  -3  -8  -6    4.50    0.83
  -3  -8  -6    5.74    0.83
   3   8   6    4.53    0.98
   3   8   6    6.10    1.01
   3   8   6    5.54    1.02
   3   8   6    4.74    0.94
   3   8   6    5.26    0.91
   3   8   6    5.47    0.93
  -3  -8  -7   11.28    1.14
   3   8   7   12.92    1.43
   3   8   7   15.03    1.45
   3   8   7   13.89    1.44
   3   8   7   13.33    1.35
   3   8   7   13.40    1.33
  -3  -8  -8    3.78    0.66
  -3  -8  -8    5.71    0.88
   3   8   8    3.94    0.90
   3   8   8    2.56    0.63
   3   8   8    3.85    0.82
   3   8   8    3.44    0.74
   3   8   8    3.78    0.78
  -3  -8  -9  172.66    3.91
   3   8   9  176.05    3.76
   3   8   9  177.95    4.32
  -3  -8  -9  182.51    4.22
   3   8   9  166.47    4.22
   3   8   9  169.52    4.19
  -3  -8 -10   76.27    2.24
  -3  -8 -10   76.57    2.42
   3   8  10   73.70    2.59
  -3  -8 -10   72.60    2.47
   3   8  10   72.76    2.52
  -3  -8 -11    3.72    0.54
  -3  -8 -11    4.47    0.55
   3   8  11    4.52    0.64
  -3  -8 -11    3.34    0.56
   3   8  11    3.16    0.55
  -3  -9   4    0.51    0.28
  -3  -9   4    0.66    0.28
   3   9  -4    0.67    0.34
  -3  -9   3   61.72    1.92
  -3  -9   3   60.73    1.75
  -3  -9   3   61.02    1.73
   3   9  -3   62.76    2.05
   3   9  -3   62.48    2.04
  -3  -9   3   63.21    1.88
   3   9  -3   64.96    2.06
   3   9  -3   60.41    1.74
  -3  -9   2   70.80    2.33
  -3  -9   2   70.45    2.24
  -3  -9   2   71.17    2.10
  -3  -9   2   70.64    2.07
   3   9  -2   73.06    2.55
   3   9  -2   72.00    2.54
  -3  -9   2   71.84    2.24
   3   9  -2   74.23    2.50
   3   9  -2   71.56    2.21
  -3  -9   1   16.34    1.25
  -3  -9   1   17.17    1.27
  -3  -9   1   16.63    1.21
  -3  -9   1   17.47    1.09
   3   9  -1   16.14    1.37
   3   9  -1   17.65    1.43
  -3  -9   1   17.00    1.20
   3   9  -1   17.80    1.36
   3   9  -1   16.28    1.17
  -3  -9   0   65.35    2.49
  -3  -9   0   67.84    2.31
  -3  -9   0   67.61    2.57
  -3  -9   0   66.23    2.52
   3   9   0   65.88    2.42
   3   9   0   66.54    2.79
   3   9   0   66.95    2.83
  -3  -9   0   66.80    2.34
   3   9   0   68.87    2.72
   3   9   0   65.46    2.40
  -3  -9  -1   31.64    1.76
  -3  -9  -1   31.47    1.81
  -3  -9  -1   32.52    1.88
   3   9   1   29.51    1.79
   3   9   1   33.84    2.09
   3   9   1   36.04    2.16
   3   9   1   31.93    1.83
  -3  -9  -1   32.03    1.62
   3   9   1   32.11    1.91
  -3  -9  -2    5.01    0.76
  -3  -9  -2    4.41    0.78
  -3  -9  -2    5.22    0.89
   3   9   2    4.27    0.82
   3   9   2    4.60    0.93
   3   9   2    3.92    0.86
   3   9   2    3.56    0.75
   3   9   2    3.92    0.76
  -3  -9  -3 1123.70   10.32
  -3  -9  -3 1139.64   10.97
   3   9   3 1104.45   11.47
   3   9   3 1137.55   12.03
   3   9   3 1120.34   11.84
   3   9   3 1079.79   11.44
   3   9   3 1105.86   10.66
  -3  -9  -4   30.60    1.86
  -3  -9  -4   29.80    1.64
  -3  -9  -4   29.67    1.80
   3   9   4   27.92    1.92
   3   9   4   30.43    2.00
   3   9   4   29.11    1.93
   3   9   4   28.72    2.00
   3   9   4   30.47    2.01
   3   9   4   28.94    1.70
  -3  -9  -5   -0.07    0.49
  -3  -9  -5   -0.02    0.43
   3   9   5   -0.02    0.49
   3   9   5    0.12    0.52
   3   9   5    1.18    0.67
   3   9   5    0.14    0.55
  -3  -9  -6   57.85    2.39
  -3  -9  -6   55.38    2.21
   3   9   6   54.11    2.56
   3   9   6   57.48    2.60
   3   9   6   57.14    2.63
  -3  -9  -7  148.70    3.52
  -3  -9  -7  144.99    3.72
  -3  -9  -7  144.66    3.18
   3   9   7  139.21    3.87
   3   9   7  148.43    3.85
   3   9   7  140.81    3.91
   3   9   7  131.40    3.38
   3   9   7  137.35    3.42
  -3  -9  -8   42.59    1.69
  -3  -9  -8   40.50    1.84
   3   9   8   38.33    1.92
   3   9   8   40.06    1.80
   3   9   8   39.69    1.95
  -3  -9  -8   41.37    1.89
   3   9   8   39.47    1.80
   3   9   8   39.77    1.79
  -3  -9  -9    0.45    0.38
   3   9   9    0.40    0.28
  -3  -9  -9    0.38    0.40
   3   9   9   -0.10    0.39
   3   9   9    0.00    0.40
   3   9   9    1.02    0.46
  -3  -9 -10   42.15    1.30
  -3  -9 -10   45.91    1.49
   3   9  10   43.28    1.50
  -3  -9 -10   45.04    1.48
   3   9  10   41.82    1.42
  -3 -10   1    1.23    0.34
  -3 -10   1    1.81    0.39
   3  10  -1    1.44    0.42
   3  10  -1    1.16    0.38
   3  10  -1    1.60    0.39
  -3 -10   0  123.26    2.46
  -3 -10   0  128.71    2.61
  -3 -10   0  124.91    2.48
   3  10   0  128.12    2.87
   3  10   0  130.97    2.92
   3  10   0  124.97    2.61
  -3 -10  -1   98.35    2.29
  -3 -10  -1   95.66    2.10
  -3 -10  -1  105.26    2.53
  -3 -10  -1  105.37    2.55
   3  10   1   88.12    2.13
   3  10   1  104.56    2.80
   3  10   1  106.25    2.82
   3  10   1   96.77    2.46
   3  10   1  102.43    2.49
  -3 -10  -2    9.77    0.74
  -3 -10  -2    8.96    0.80
  -3 -10  -2    8.74    0.80
  -3 -10  -2   10.34    0.93
   3  10   2    9.15    0.86
   3  10   2   10.20    0.99
   3  10   2    8.67    0.90
   3  10   2    9.48    0.95
   3  10   2   10.07    0.89
   3  10   2    9.58    0.83
  -3 -10  -3  123.70    2.89
  -3 -10  -3  124.82    2.73
  -3 -10  -3  127.29    3.03
   3  10   3  120.67    3.02
   3  10   3  126.02    3.18
   3  10   3  123.12    3.24
   3  10   3  119.95    3.01
   3  10   3  120.63    2.63
  -3 -10  -4  100.94    2.68
  -3 -10  -4  102.33    2.29
  -3 -10  -4  105.72    2.73
   3  10   4  100.38    2.84
   3  10   4   98.29    2.78
   3  10   4  107.24    3.04
   3  10   4   99.11    2.85
  -3 -10  -5   71.38    2.22
  -3 -10  -5   71.15    2.23
  -3 -10  -5   70.33    2.14
   3  10   5   71.02    2.38
   3  10   5   72.60    2.46
   3  10   5   69.70    2.40
  -3 -10  -5   66.28    1.80
  -3 -10  -6  474.69    5.41
  -3 -10  -6  481.42    5.57
  -3 -10  -6  456.75    4.94
   3  10   6  471.70    5.88
   3  10   6  490.01    5.93
   3  10   6  484.47    6.02
  -3 -10  -6  441.06    4.65
  -3 -10  -7   32.73    1.31
  -3 -10  -7   32.27    1.38
   3  10   7   30.68    1.44
   3  10   7   29.52    1.34
   3  10   7   31.42    1.47
  -3 -10  -7   30.77    1.21
   3  10   8  109.82    2.33
  -3 -10  -8  104.94    1.97
  -4   7   7   45.01    1.52
   4  -7  -7   44.23    1.45
   4  -7  -7   45.73    1.52
  -4   7   7   45.06    1.53
  -4   7   7   39.80    1.24
  -4   7   6   51.83    1.83
   4  -7  -6   50.31    1.68
   4  -7  -6   47.39    1.56
   4  -7  -6   54.54    1.81
  -4   7   6   53.27    1.91
  -4   7   6   51.99    1.77
  -4   7   5   57.71    2.05
   4  -7  -5   53.09    1.84
   4  -7  -5   51.89    1.77
   4  -7  -5   54.15    1.91
   4  -7  -5   53.54    1.89
  -4   7   5   56.99    2.14
   4  -7  -5   52.16    1.58
  -4   7   5   53.95    2.03
  -4   7   4    4.35    0.68
   4  -7  -4    4.23    0.67
   4  -7  -4    3.87    0.57
   4  -7  -4    3.38    0.59
   4  -7  -4    3.75    0.59
  -4   7   4    6.08    0.82
   4  -7  -4    4.58    0.70
   4  -7  -4    4.59    0.60
  -4   7   4    4.37    0.71
  -4   7   3    6.39    0.78
   4  -7  -3    6.42    0.80
   4  -7  -3    6.34    0.80
   4  -7  -3    5.79    0.66
  -4   7   3    6.37    0.67
  -4   7   3    6.27    0.84
   4  -7  -3    5.17    0.76
  -4   7   3    6.42    0.86
   4  -7  -2  261.75    4.54
   4  -7  -2  264.09    4.62
  -4   7   2  260.78    4.36
  -4   7   2  264.02    4.76
   4  -7  -2  260.45    4.62
  -4   7   2  276.39    4.98
  -4   7   1   66.73    2.09
   4  -7  -1   76.39    2.39
   4  -7  -1   76.74    2.43
  -4   7   1   73.33    2.13
   4  -7  -1   69.16    2.09
  -4   7   1   74.26    2.40
  -4   7   1   74.09    2.43
   4  -7  -1   74.93    2.43
  -4   7   1   76.42    2.60
   4  -7   0   10.35    0.88
   4  -7   0   10.18    0.90
   4  -7   0    9.79    0.89
  -4   7   0   10.57    0.85
   4  -7   0   10.36    0.84
  -4   7   0    9.89    0.92
  -4   7   0    9.77    0.88
   4  -7   0   10.66    0.92
  -4   7   0   10.13    0.99
   4  -7   1    0.39    0.35
   4  -7   1    0.59    0.35
   4  -7   1    0.54    0.33
  -4   7  -1    0.53    0.34
   4  -7   1    0.52    0.31
  -4   7  -1    0.90    0.43
  -4   7  -1    0.49    0.33
   4  -7   1    0.26    0.33
   4  -7   1    0.66    0.37
  -4   7  -1    0.62    0.44
   4  -7   2  124.92    2.54
  -4   7  -2  121.83    2.43
   4  -7   2  124.60    2.46
  -4   7  -2  132.05    2.74
  -4   7  -2  124.59    2.53
  -4   6   9   53.48    1.71
   4  -6  -9   49.91    1.53
   4  -6  -9   48.98    1.51
  -4   6   9   52.24    1.61
  -4   6   8   55.95    2.08
   4  -6  -8   54.28    1.91
   4  -6  -8   54.73    1.65
   4  -6  -8   55.20    1.96
   4  -6  -8   50.65    1.70
  -4   6   8   55.79    1.86
  -4   6   8   55.15    1.95
  -4   6   7  199.34    4.30
   4  -6  -7  197.13    3.99
   4  -6  -7  200.97    4.11
   4  -6  -7  179.35    3.40
  -4   6   7  200.68    4.13
  -4   6   7  180.18    3.64
  -4   6   7  192.52    3.97
   4  -6  -6   11.46    1.02
  -4   6   6   11.79    1.21
   4  -6  -6   10.18    1.00
   4  -6  -6   11.78    1.09
   4  -6  -6   11.41    1.12
   4  -6  -6   11.58    0.92
  -4   6   6   12.04    1.16
  -4   6   6   10.03    0.93
  -4   6   6   11.04    1.07
  -4   6   6   11.63    1.10
  -4   6   5  152.62    4.21
   4  -6  -5  143.49    3.71
   4  -6  -5  148.11    3.86
   4  -6  -5  143.66    3.72
   4  -6  -5  145.09    3.84
  -4   6   5  143.22    4.08
   4  -6  -5  137.47    3.85
   4  -6  -5  146.71    3.38
  -4   6   5  144.55    3.96
  -4   6   5  142.02    3.74
  -4   6   4   13.55    1.37
   4  -6  -4   10.93    1.16
   4  -6  -4    9.70    1.12
   4  -6  -4   11.37    1.09
   4  -6  -4   12.06    1.17
  -4   6   4   12.81    1.34
   4  -6  -4   14.71    1.37
  -4   6   4   12.22    1.29
  -4   6   4   10.72    1.09
  -4   6   3  330.24    6.35
   4  -6  -3  331.91    6.03
   4  -6  -3  320.05    5.35
   4  -6  -3  328.88    6.13
   4  -6  -3  319.65    5.62
  -4   6   3  330.74    5.68
  -4   6   3  326.41    6.49
   4  -6  -3  329.76    6.19
  -4   6   3  338.32    6.50
   4  -6  -2  207.26    4.88
   4  -6  -2  208.11    4.85
   4  -6  -2  203.92    4.74
   4  -6  -2  212.23    4.36
   4  -6  -2  205.83    4.44
  -4   6   2  213.72    4.83
  -4   6   2  216.66    5.29
   4  -6  -2  207.90    4.88
  -4   6   2  207.85    5.21
   4  -6  -1    6.55    0.99
   4  -6  -1    5.68    0.94
   4  -6  -1    6.10    0.92
   4  -6  -1    6.68    0.89
  -4   6   1    5.22    0.78
  -4   6   1    5.79    0.93
  -4   6   1    5.48    0.92
   4  -6  -1    6.30    0.94
  -4   6   1    5.95    1.03
   4  -6   0   31.28    1.85
   4  -6   0   31.62    1.83
   4  -6   0   30.17    1.88
  -4   6   0   29.87    1.80
   4  -6   0   31.37    1.82
  -4   6   0   29.46    1.89
  -4   6   0   31.02    1.94
   4  -6   0   32.20    1.90
  -4   6   0   30.81    2.02
   4  -6   1   33.55    1.77
   4  -6   1   35.08    1.86
   4  -6   1   32.73    1.91
  -4   6  -1   33.71    1.91
   4  -6   1   34.65    1.89
  -4   6  -1   36.18    2.08
  -4   6  -1   32.22    1.89
   4  -6   1   35.80    1.88
   4  -6   1   31.51    1.89
  -4   6  -1   34.44    2.07
   4  -6   2    6.12    0.73
   4  -6   2    6.77    0.79
   4  -6   2    4.92    0.81
  -4   6  -2    6.27    0.86
   4  -6   2    5.97    0.87
  -4   6  -2    6.20    0.82
  -4   6  -2    5.40    0.88
   4  -6   2    5.99    0.76
   4  -6   2    6.51    0.92
  -4   6  -2    5.46    0.86
   4  -6   3  258.76    4.67
  -4   6  -3  260.44    4.75
   4  -6   3  266.44    4.65
  -4   6  -3  270.62    5.03
   4  -6   3  255.70    3.94
   4  -6   3  263.81    4.68
  -4   6  -3  257.60    4.76
   4  -6   4    1.59    0.50
  -4   6  -4    1.99    0.51
   4  -6   4    1.79    0.36
   4  -6   4    2.08    0.49
  -4   6  -4    1.73    0.52
   4  -6   4    1.86    0.47
  -4   6  -4    2.53    0.55
   4  -6   5  136.35    2.44
  -4   6  -5  143.45    2.66
   4  -6   5  137.41    2.40
  -4   6  -5  137.75    2.54
  -4   5  10   27.67    1.26
   4  -5 -10   24.32    1.01
   4  -5 -10   27.35    1.20
   4  -5 -10   22.20    1.00
   4  -5 -10   26.62    1.21
   4  -5 -10   22.65    1.03
  -4   5  10   21.09    0.98
  -4   5  10   27.29    1.29
  -4   5   9  151.25    3.54
   4  -5  -9  143.29    3.18
   4  -5  -9  146.48    3.22
   4  -5  -9  144.92    3.25
   4  -5  -9  137.28    2.93
  -4   5   9  144.28    3.14
  -4   5   9  146.11    3.46
  -4   5   8   20.54    1.53
   4  -5  -8   21.05    1.43
   4  -5  -8   20.86    1.38
   4  -5  -8   21.17    1.47
   4  -5  -8   19.39    1.24
  -4   5   8   21.08    1.35
  -4   5   8   21.72    1.44
  -4   5   8   21.24    1.54
  -4   5   7   52.61    2.57
   4  -5  -7   46.03    2.10
   4  -5  -7   51.13    2.38
   4  -5  -7   46.84    2.11
   4  -5  -7   50.39    2.40
   4  -5  -7   47.33    1.98
  -4   5   7   47.60    2.27
  -4   5   7   52.11    2.34
  -4   5   7   48.79    2.16
  -4   5   7   50.07    2.44
  -4   5   6    2.04    0.74
   4  -5  -6    0.85    0.47
   4  -5  -6    1.15    0.50
   4  -5  -6    0.87    0.51
   4  -5  -6    0.69    0.41
   4  -5  -6    0.91    0.59
  -4   5   6    0.18    0.50
  -4   5   6    0.34    0.38
  -4   5   6    0.98    0.57
  -4   5   5    0.85    0.56
   4  -5  -5    0.95    0.59
   4  -5  -5    0.47    0.53
   4  -5  -5    0.80    0.50
   4  -5  -5    0.94    0.63
  -4   5   5    1.00    0.53
   4  -5  -5    0.37    0.51
   4  -5  -5    0.74    0.41
  -4   5   5    0.52    0.47
  -4   5   5    0.27    0.50
  -4   5   4  367.00    7.27
   4  -5  -4  355.76    6.59
   4  -5  -4  360.94    6.73
   4  -5  -4  350.01    6.34
   4  -5  -4  360.47    6.59
  -4   5   4  357.04    7.09
   4  -5  -4  344.52    6.70
  -4   5   4  362.70    6.94
   4  -5  -3   11.22    1.29
   4  -5  -3    9.46    1.10
   4  -5  -3   11.65    1.25
   4  -5  -3    9.60    1.22
   4  -5  -3   10.67    1.17
   4  -5  -3   10.74    1.12
  -4   5   3   10.90    1.36
   4  -5  -3   10.68    1.26
  -4   5   3   10.61    1.29
   4  -5  -2  174.01    4.23
   4  -5  -2  188.83    4.95
   4  -5  -2  188.15    4.85
   4  -5  -2  179.56    4.80
   4  -5  -2  179.80    4.47
   4  -5  -2  179.80    4.57
  -4   5   2  188.13    4.81
  -4   5   2  181.76    5.18
   4  -5  -2  180.41    4.82
  -4   5   2  191.96    5.25
   4  -5  -1   12.63    1.35
   4  -5  -1   11.64    1.27
   4  -5  -1   10.45    1.23
  -4   5   1   11.15    1.18
   4  -5  -1   13.01    1.30
  -4   5   1   13.68    1.37
   4  -5  -1   10.68    1.26
   4  -5  -1   15.82    1.48
  -4   5   1   12.80    1.43
   4  -5   0  146.24    4.27
   4  -5   0  148.95    4.26
   4  -5   0  146.30    4.36
  -4   5   0  150.21    4.28
   4  -5   0  150.37    4.30
  -4   5   0  144.97    4.43
   4  -5   0  145.80    4.25
   4  -5   0  144.23    4.30
  -4   5   0  149.28    4.70
   4  -5   1   25.05    1.78
   4  -5   1   25.77    1.77
   4  -5   1   29.40    1.99
  -4   5  -1   28.09    1.92
   4  -5   1   29.08    1.92
  -4   5  -1   28.52    2.02
   4  -5   1   27.46    1.84
   4  -5   1   28.26    1.93
   4  -5   1   26.01    1.74
   4  -5   2   31.60    1.87
   4  -5   2   32.25    1.85
   4  -5   2   33.21    2.10
  -4   5  -2   33.54    2.10
   4  -5   2   34.56    2.08
   4  -5   2   33.11    1.82
  -4   5  -2   33.53    2.18
   4  -5   2   32.06    1.89
   4  -5   2   34.89    2.15
   4  -5   2   34.01    1.98
   4  -5   3  653.16    7.67
   4  -5   3  685.79    8.99
  -4   5  -3  698.30    9.27
   4  -5   3  680.34    8.81
   4  -5   3  669.97    8.07
  -4   5  -3  702.94    9.61
   4  -5   3  689.82    8.00
   4  -5   3  696.45    9.00
   4  -5   3  674.63    8.50
   4  -5   4   92.87    3.13
  -4   5  -4   99.24    3.38
   4  -5   4   97.60    3.16
   4  -5   4   92.17    2.93
  -4   5  -4   95.08    2.97
   4  -5   4   85.51    3.04
  -4   5  -4   95.93    3.38
   4  -5   4   96.67    3.20
   4  -5   4   89.13    2.99
   4  -5   5    0.86    0.48
  -4   5  -5    0.74    0.43
  -4   5  -5    0.92    0.55
   4  -5   5    0.69    0.42
   4  -5   5    0.79    0.43
   4  -5   5    0.36    0.40
  -4   5  -5    0.90    0.52
   4  -5   5    1.00    0.45
   4  -5   5    0.32    0.37
   4  -5   6  299.31    4.19
  -4   5  -6  303.80    4.76
   4  -5   6  295.44    4.06
   4  -5   6  294.47    4.23
  -4   5  -6  300.33    4.30
  -4   5  -6  300.97    4.58
   4  -5   6  308.54    4.37
  -4   5  -6  282.91    4.19
   4  -5   6  291.60    4.34
  -4   5  -7   14.41    0.85
   4  -5   7   15.14    0.78
   4  -5   7   15.00    0.79
   4  -4 -11   17.55    0.95
   4  -4 -11   15.40    0.85
   4  -4 -11   15.42    0.88
  -4   4  11   16.86    0.90
  -4   4  11   18.75    0.98
  -4   4  11   16.09    0.81
  -4   4  10   18.03    1.20
   4  -4 -10   16.24    0.99
   4  -4 -10   18.34    1.22
   4  -4 -10   15.95    1.04
  -4   4  10   15.42    0.97
   4  -4 -10   17.39    1.16
  -4   4  10   18.64    1.23
  -4   4  10   18.65    1.27
  -4   4   9    1.59    0.57
   4  -4  -9    1.94    0.58
   4  -4  -9    2.49    0.64
   4  -4  -9    2.26    0.58
  -4   4   9    3.71    0.62
   4  -4  -9    2.85    0.64
  -4   4   9    3.54    0.70
  -4   4   9    2.43    0.68
  -4   4   8   36.88    2.17
   4  -4  -8   37.50    2.05
   4  -4  -8   37.05    2.06
   4  -4  -8   38.23    2.11
  -4   4   8   36.27    1.94
   4  -4  -8   36.46    1.98
  -4   4   8   37.94    2.14
  -4   4   8   40.19    2.28
  -4   4   7   23.50    1.85
   4  -4  -7   28.53    1.80
   4  -4  -7   22.78    1.71
   4  -4  -7   21.88    1.64
   4  -4  -7   24.88    1.82
   4  -4  -7   23.02    1.61
  -4   4   7   27.38    1.78
  -4   4   7   24.39    1.89
  -4   4   6  671.17    9.81
   4  -4  -6  651.33    8.84
   4  -4  -6  659.78    9.14
   4  -4  -6  657.00    8.65
   4  -4  -6  670.05    9.29
   4  -4  -6  653.54    8.34
  -4   4   6  684.29    9.31
  -4   4   6  663.95    9.54
  -4   4   5   16.33    1.61
   4  -4  -5   14.12    1.34
   4  -4  -5   14.99    1.44
   4  -4  -5   16.27    1.47
   4  -4  -5   15.36    1.32
   4  -4  -5   16.92    1.56
  -4   4   5   14.43    1.45
   4  -4  -5   13.74    1.42
   4  -4  -5   15.75    1.31
  -4   4   5   15.65    1.43
   4  -4  -4   22.71    1.71
   4  -4  -4   26.05    1.85
   4  -4  -4   23.11    1.70
   4  -4  -4   24.26    1.79
  -4   4   4   24.67    1.90
   4  -4  -4   23.53    1.78
  -4   4   4   20.74    2.76
  -4   4   4   24.58    1.83
   4  -4  -3  125.00    3.97
   4  -4  -3  128.41    3.98
   4  -4  -3  120.29    3.71
   4  -4  -3  112.76    3.81
   4  -4  -3  121.05    3.80
   4  -4  -3  123.22    6.59
   4  -4  -3  113.06    3.56
  -4   4   3  121.57    6.25
  -4   4   3  122.63    6.31
  -4   4   3  120.10    6.29
  -4   4   3  118.94    6.28
   4  -4  -3  112.18    6.04
   4  -4  -3  119.49    6.54
   4  -4  -3  114.07    6.21
   4  -4  -3  114.79    6.20
  -4   4   3  130.62    6.47
   4  -4  -3  114.55    6.12
  -4   4   3  124.09    4.20
   4  -4  -3  121.58    3.96
   4  -4  -3  115.50    6.58
  -4   4   3  114.45    6.12
  -4   4   3  115.69    6.70
  -4   4   3  108.75    6.12
  -4   4   3  119.61    3.99
   4  -4  -2   38.86    2.24
   4  -4  -2   41.01    2.11
   4  -4  -2   43.06    2.30
   4  -4  -2   40.90    2.30
   4  -4  -2   39.66    2.14
   4  -4  -2   40.13    3.64
   4  -4  -2   42.01    2.21
  -4   4   2   34.31    3.31
  -4   4   2   40.11    3.57
  -4   4   2   38.07    3.57
  -4   4   2   35.69    3.43
   4  -4  -2   41.72    3.71
   4  -4  -2   40.97    3.89
   4  -4  -2   42.43    3.81
   4  -4  -2   43.27    3.79
  -4   4   2   37.56    3.48
   4  -4  -2   40.28    3.63
   4  -4  -2   40.62    2.28
   4  -4  -2   35.27    3.64
  -4   4   2   39.84    3.64
  -4   4   2   37.11    3.79
   4  -4  -2   38.73    2.11
  -4   4   2   39.55    2.36
   4  -4  -1 1573.49   14.06
   4  -4  -1 1626.98   14.00
   4  -4  -1 1612.61   14.25
   4  -4  -1 1574.86   13.70
   4  -4  -1 1552.04   21.82
  -4   4   1 1579.59   21.82
  -4   4   1 1510.73   21.47
  -4   4   1 1542.85   21.70
   4  -4  -1 1579.45   23.16
  -4   4   1 1542.02   22.19
   4  -4  -1 1564.17   22.07
  -4   4   1 1632.13   14.20
  -4   4   1 1628.53   22.44
   4  -4  -1 1513.27   21.49
   4  -4  -1 1556.27   13.78
   4  -4  -1 1498.54   23.14
   4  -4  -1 1547.42   22.19
  -4   4   1 1576.19   22.36
  -4   4   1 1520.80   24.04
   4  -4  -1 1553.50   13.63
  -4   4   1 1544.33   21.78
   4  -4   0  170.37    4.56
   4  -4   0  168.04    4.48
   4  -4   0  172.61    4.70
  -4   4   0  165.25    4.43
   4  -4   0  173.61    4.61
  -4   4   0  159.38    7.44
  -4   4   0  167.82    4.72
   4  -4   0  169.81    4.50
  -4   4   0  154.05    7.66
   4  -4   0  175.97    4.63
   4  -4   0  159.56    4.35
   4  -4   1  140.19    4.13
   4  -4   1  136.42    3.98
   4  -4   1  141.10    4.28
  -4   4  -1  142.89    4.29
   4  -4   1  140.10    4.22
   4  -4   1  135.66    3.75
  -4   4  -1  127.84    6.99
   4  -4   1  142.72    4.10
  -4   4  -1  133.94    7.16
   4  -4   1  149.84    4.35
   4  -4   1  135.44    4.09
   4  -4   2  571.73    8.10
   4  -4   2  595.15    8.04
   4  -4   2  577.06    8.69
  -4   4  -2  607.24    9.02
   4  -4   2  599.69    8.67
   4  -4   2  587.29    8.08
   4  -4   2  590.15    8.82
   4  -4   2  573.24    8.06
   4  -4   2  611.13    8.90
   4  -4   2  593.11    8.59
   4  -4   3   65.16    2.94
  -4   4  -3   68.87    3.14
   4  -4   3   67.66    2.95
  -4   4  -3   71.61    2.91
   4  -4   3   68.31    3.04
   4  -4   3   66.71    2.65
   4  -4   3   71.46    3.09
   4  -4   3   71.09    3.03
   4  -4   4   39.05    2.24
  -4   4  -4   42.76    2.49
   4  -4   4   36.75    2.15
  -4   4  -4   41.33    2.27
   4  -4   4   41.42    2.38
   4  -4   4   40.83    2.32
   4  -4   4   40.92    2.35
   4  -4   5  113.80    3.58
  -4   4  -5  111.42    3.86
   4  -4   5  112.80    3.52
   4  -4   5  113.87    3.56
  -4   4  -5  117.39    3.73
   4  -4   5  108.71    3.71
   4  -4   5  113.55    3.69
   4  -4   5  110.08    3.65
   4  -4   6    2.69    0.60
  -4   4  -6    2.93    0.77
   4  -4   6    1.77    0.58
   4  -4   6    3.06    0.62
  -4   4  -6    2.68    0.57
  -4   4  -6    2.77    0.70
   4  -4   6    3.19    0.72
  -4   4  -6    2.27    0.68
   4  -4   6    1.94    0.61
   4  -4   6    2.65    0.67
   4  -4   7   32.33    1.45
  -4   4  -7   32.25    1.77
   4  -4   7   30.57    1.37
   4  -4   7   31.77    1.60
  -4   4  -7   29.08    1.43
  -4   4  -7   33.38    1.71
   4  -4   7   29.64    1.64
  -4   4  -7   31.49    1.67
   4  -4   7   32.07    1.59
   4  -4   7   32.17    1.69
  -4   4  -8   30.24    1.38
   4  -4   8   28.27    1.21
  -4   4  -8   24.55    1.01
  -4   4  -8   30.18    1.34
   4  -4   8   30.73    1.36
  -4   4  -8   24.83    1.06
   4  -4   8   28.84    1.15
   4  -4   8   29.86    1.33
   4  -3 -11   45.21    1.71
   4  -3 -11   44.59    1.51
  -4   3  11   46.29    1.60
   4  -3 -11   45.62    1.69
  -4   3  11   47.85    1.80
  -4   3  11   46.93    1.66
  -4   3  11   42.20    1.41
  -4   3  10   18.91    1.28
   4  -3 -10   18.24    1.13
   4  -3 -10   19.02    1.37
   4  -3 -10   16.94    1.14
  -4   3  10   21.14    1.37
   4  -3 -10   18.28    1.34
  -4   3  10   19.69    1.43
  -4   3  10   18.54    1.35
  -4   3   9   44.99    2.26
   4  -3  -9   42.57    2.04
   4  -3  -9   47.08    2.36
   4  -3  -9   44.91    2.17
  -4   3   9   45.10    2.25
   4  -3  -9   46.86    2.30
  -4   3   9   44.67    2.34
  -4   3   9   45.08    2.31
  -4   3   8   62.10    2.83
   4  -3  -8   59.27    2.65
   4  -3  -8   62.35    2.80
   4  -3  -8   61.81    2.76
  -4   3   8   62.18    2.78
   4  -3  -8   63.35    2.77
  -4   3   8   58.33    2.81
  -4   3   8   59.72    2.84
  -4   3   7   99.34    3.70
   4  -3  -7   94.96    3.47
   4  -3  -7   97.85    3.53
   4  -3  -7  103.22    3.67
   4  -3  -7   98.48    3.50
  -4   3   7  105.00    3.82
  -4   3   6    2.89    0.77
   4  -3  -6    3.51    0.74
   4  -3  -6    3.14    0.79
   4  -3  -6    3.14    0.67
   4  -3  -6    2.70    0.69
   4  -3  -6    2.54    0.76
   4  -3  -6    3.50    0.75
  -4   3   6    2.51    0.75
   4  -3  -5  149.80    4.14
  -4   3   5  164.08    4.72
   4  -3  -5  147.58    4.26
   4  -3  -5  156.27    4.35
   4  -3  -5  150.54    4.13
   4  -3  -5  155.94    4.43
  -4   3   5  149.00    6.89
  -4   3   5  151.02    6.96
  -4   3   5  148.19    6.91
   4  -3  -5  144.20    7.74
   4  -3  -5  147.72    7.06
   4  -3  -5  145.26    7.16
   4  -3  -5  147.66    7.11
   4  -3  -5  147.86    3.98
   4  -3  -5  142.64    6.93
  -4   3   5  148.18    6.82
  -4   3   5  156.43    4.36
   4  -3  -5  138.50    4.32
  -4   3   5  144.04    6.81
   4  -3  -5  142.28    7.24
  -4   3   5  154.32    7.06
  -4   3   5  155.75    7.61
  -4   3   5  156.45    7.63
   4  -3  -4   20.75    1.55
   4  -3  -4   22.00    1.66
   4  -3  -4   20.62    1.57
   4  -3  -4   19.99    1.57
  -4   3   4   21.10    2.50
  -4   3   4   18.79    2.39
  -4   3   4   17.74    2.30
   4  -3  -4   17.38    2.57
   4  -3  -4   21.18    2.55
   4  -3  -4   17.39    2.37
   4  -3  -4   18.71    2.46
   4  -3  -4   19.18    2.43
  -4   3   4   22.02    2.48
  -4   3   4   22.10    1.68
   4  -3  -4   20.15    1.62
  -4   3   4   19.62    2.40
   4  -3  -4   21.87    2.70
  -4   3   4   18.97    2.40
  -4   3   4   20.44    2.74
  -4   3   4   18.94    2.59
   4  -3  -3  438.19   11.84
  -4   3   3  422.32   10.58
  -4   3   3  425.96   10.67
  -4   3   3  422.22   10.72
   4  -3  -3  420.02   10.81
   4  -3  -3  423.21   11.23
  -4   3   3  391.19   10.25
   4  -3  -3  415.16   10.80
   4  -3  -3  431.32   10.94
  -4   3   3  433.12   10.70
   4  -3  -3  415.46   10.74
   4  -3  -3  418.95   11.48
  -4   3   3  424.65   10.87
  -4   3   3  403.72   11.61
  -4   3   3  424.76   11.48
   4  -3  -2   23.01    2.70
  -4   3   2   24.74    2.51
  -4   3   2   24.43    2.50
  -4   3   2   23.98    2.49
  -4   3   2   23.73    2.52
   4  -3  -2   23.30    2.48
   4  -3  -2   25.25    2.71
   4  -3  -2   24.81    2.57
  -4   3   2   19.15    2.34
   4  -3  -2   22.47    2.49
  -4   3   2   20.70    2.30
   4  -3  -2   22.58    2.51
   4  -3  -2   23.66    2.71
  -4   3   2   23.19    2.53
  -4   3   2   23.66    2.85
  -4   3   2   20.40    2.43
   4  -3  -1  161.96    6.58
  -4   3   1  161.96    6.25
  -4   3   1  155.58    6.15
  -4   3   1  154.36    6.17
  -4   3   1  158.12    6.25
   4  -3  -1  161.53    6.29
   4  -3  -1  157.87    6.55
   4  -3  -1  152.07    6.22
  -4   3   1  150.92    6.56
   4  -3  -1  153.15    6.18
  -4   3   1  161.87    6.31
   4  -3  -1  151.62    6.11
   4  -3  -1  155.19    6.69
  -4   3   1  150.14    6.21
  -4   3   1  147.33    6.86
   4  -3   0  329.59    8.94
  -4   3   0  312.91    8.66
  -4   3   0  310.01    8.63
  -4   3   0  315.41    8.74
  -4   3   0  315.27    8.76
   4  -3   0  324.03    8.80
   4  -3   0  316.95    9.27
   4  -3   0  322.19    9.04
  -4   3   0  315.02    9.69
   4  -3   0  333.94    9.05
  -4   3   0  340.53    9.18
   4  -3   0  312.86    8.66
   4  -3   0  296.52    9.19
  -4   3   0  306.97    8.82
  -4   3   0  316.68   10.00
   4  -3   1   83.29    4.77
  -4   3  -1   84.78    5.21
  -4   3  -1   82.34    5.22
   4  -3   2 2527.89   17.39
   4  -3   2 2477.40   27.56
   4  -3   2 2593.68   17.39
   4  -3   2 2614.89   17.97
  -4   3  -2 2463.95   29.13
  -4   3  -2 2421.64   27.99
   4  -3   2 2595.24   17.55
   4  -3   2 2420.70   17.16
   4  -3   3  543.03    8.17
   4  -3   3  513.43   13.37
   4  -3   3  520.19    7.97
  -4   3  -3  535.76    7.97
   4  -3   3  536.63    8.32
  -4   3  -3  509.21   13.83
  -4   3  -3  515.47   13.17
   4  -3   3  539.92    8.24
   4  -3   3  514.59    8.16
   4  -3   4    1.96    0.59
   4  -3   4    1.64    0.60
  -4   3  -4    1.13    0.51
   4  -3   4    2.86    0.72
   4  -3   4    1.71    0.63
   4  -3   4    1.54    0.62
   4  -3   5  291.02    5.91
   4  -3   5  299.65    5.95
  -4   3  -5  293.88    5.83
  -4   3  -5  304.38    6.44
   4  -3   5  275.23    6.00
   4  -3   5  298.73    6.37
   4  -3   5  302.43    6.30
   4  -3   5  305.03    6.42
   4  -3   6    2.48    0.63
   4  -3   6    2.62    0.62
  -4   3  -6    1.54    0.58
  -4   3  -6    2.18    0.73
   4  -3   6    1.71    0.57
   4  -3   6    2.14    0.67
   4  -3   6    2.18    0.70
   4  -3   6    4.24    0.88
   4  -3   7  102.66    2.99
   4  -3   7  103.54    2.91
   4  -3   7  103.84    3.32
  -4   3  -7  103.22    3.29
  -4   3  -7  104.73    3.58
   4  -3   7   99.62    3.27
   4  -3   7  102.97    3.48
   4  -3   7  108.48    3.45
   4  -3   7  105.02    3.50
  -4   3  -8   29.22    1.79
   4  -3   8   29.91    1.60
  -4   3  -8   31.04    1.64
  -4   3  -8   31.50    1.81
   4  -3   8   28.38    1.66
   4  -3   8   30.48    1.62
   4  -3   8   29.97    1.71
  -4   3  -9   15.46    1.07
   4  -3   9   14.91    0.91
  -4   3  -9   14.98    0.95
  -4   3  -9   17.26    1.13
   4  -3   9   15.00    1.02
  -4   3  -9   11.96    0.77
   4  -3   9   14.83    0.88
   4  -3   9   16.09    1.05
  -4   2  12    4.25    0.47
   4  -2 -11   19.57    1.22
   4  -2 -11   18.18    0.95
  -4   2  11   20.84    1.27
  -4   2  11   17.79    0.97
   4  -2 -11   18.89    1.19
   4  -2 -11   18.23    1.09
  -4   2  11   19.73    1.28
  -4   2  11   19.80    1.09
  -4   2  10   33.81    1.68
   4  -2 -10   35.86    1.94
  -4   2  10   33.88    1.89
  -4   2  10   33.74    1.70
   4  -2 -10   34.96    1.92
   4  -2 -10   33.76    1.74
  -4   2  10   34.54    1.98
  -4   2  10   35.54    1.83
  -4   2   9    0.40    0.38
   4  -2  -9    0.65    0.43
   4  -2  -9    0.46    0.55
   4  -2  -9    1.00    0.52
  -4   2   9    1.56    0.61
   4  -2  -9    0.30    0.52
   4  -2  -9    0.52    0.39
  -4   2   9    0.42    0.51
  -4   2   9    0.99    0.50
  -4   2   8  130.78    4.03
   4  -2  -8  128.83    3.87
   4  -2  -8  134.79    4.22
   4  -2  -8  130.54    4.05
  -4   2   8  135.63    4.26
   4  -2  -8  128.75    4.12
   4  -2  -8  122.93    3.73
  -4   2   8  139.31    4.39
  -4   2   8  127.24    4.07
  -4   2   7  382.59    6.99
   4  -2  -7  378.79    6.81
   4  -2  -7  384.99    7.06
   4  -2  -7  390.23    7.09
   4  -2  -7  389.43    7.06
  -4   2   7  383.78    7.12
  -4   2   6   22.78    1.76
   4  -2  -6   22.22    1.66
   4  -2  -6   22.24    1.68
   4  -2  -6   22.18    2.89
   4  -2  -6   23.86    1.75
   4  -2  -6   23.45    1.77
   4  -2  -6   22.64    2.97
  -4   2   6   25.22    2.89
  -4   2   6   22.97    2.80
  -4   2   6   23.36    2.79
   4  -2  -6   21.08    2.99
   4  -2  -6   24.09    2.98
   4  -2  -6   24.78    3.11
   4  -2  -6   23.24    2.85
   4  -2  -6   22.90    1.72
   4  -2  -6   22.15    2.85
  -4   2   6   27.62    2.94
  -4   2   6   25.25    2.82
   4  -2  -6   24.47    3.01
  -4   2   6   24.74    2.87
  -4   2   6   19.46    2.78
  -4   2   6   28.06    3.26
  -4   2   6   23.91    1.78
   4  -2  -5  120.02    3.71
   4  -2  -5  122.90    6.36
   4  -2  -5  124.71    3.84
  -4   2   5  121.51    5.82
  -4   2   5  115.65    5.72
  -4   2   5  125.49    5.97
   4  -2  -5  123.35    6.68
   4  -2  -5  125.17    6.10
   4  -2  -5  128.05    6.26
   4  -2  -5  121.71    6.02
   4  -2  -5  119.23    5.93
  -4   2   5  123.41    5.88
  -4   2   5  119.11    5.81
   4  -2  -5  125.78    6.40
  -4   2   5  123.69    5.93
   4  -2  -5  115.52    6.27
  -4   2   5  119.62    6.38
  -4   2   5  126.09    6.52
   4  -2  -4  191.48    7.61
  -4   2   4  190.93    6.89
  -4   2   4  185.88    6.81
  -4   2   4  195.03    6.96
   4  -2  -4  196.56    7.98
   4  -2  -4  196.64    7.17
   4  -2  -4  194.23    7.34
   4  -2  -4  189.23    7.10
   4  -2  -4  187.58    7.01
  -4   2   4  188.33    6.79
  -4   2   4  189.75    6.90
   4  -2  -4  197.30    7.58
  -4   2   4  198.05    7.08
  -4   2   4  201.37    7.89
  -4   2   4  183.00    7.45
   4  -2  -3   10.26    1.93
   4  -2  -3   14.52    2.08
  -4   2   3   15.28    1.84
  -4   2   3   10.76    1.61
  -4   2   3   11.63    1.62
   4  -2  -3   16.66    2.27
   4  -2  -3   11.71    1.66
   4  -2  -3   14.91    1.90
   4  -2  -3   10.41    1.59
   4  -2  -3   11.93    1.67
  -4   2   3   13.42    1.75
  -4   2   3   12.10    1.69
   4  -2  -3   12.90    1.88
  -4   2   3   12.16    1.72
  -4   2   3   12.25    1.93
  -4   2   3   11.46    1.91
   4  -2  -2 1240.03   18.03
  -4   2   2 1232.07   15.61
  -4   2   2 1191.23   15.34
  -4   2   2 1217.89   15.60
  -4   2   2 1218.70   15.66
   4  -2  -2 1286.82   16.17
   4  -2  -2 1194.88   16.35
  -4   2   2 1185.72   16.89
   4  -2  -2 1202.20   15.91
   4  -2  -2 1224.97   15.87
  -4   2   2 1249.63   15.68
   4  -2  -2 1196.36   15.61
   4  -2  -2 1197.19   16.90
  -4   2   2 1272.88   16.07
  -4   2   2 1184.78   17.81
  -4   2   2 1241.67   17.28
   4  -2  -1    0.22    0.48
  -4   2   1    0.02    0.28
  -4   2   1    0.35    0.35
  -4   2   1   -0.01    0.36
  -4   2   1    0.10    0.37
   4  -2  -1    0.04    0.38
   4  -2  -1   -2.31    0.79
   4  -2  -1   -0.70    0.56
   4  -2  -1   -1.88    0.70
  -4   2   1    1.22    0.58
   4  -2  -1    1.17    0.64
  -4   2   1    1.57    0.77
   4  -2  -1   -0.11    0.63
  -4   2   1    0.05    0.43
  -4   2   1   -0.51    0.68
  -4   2   1    0.99    0.58
   4  -2   0  690.22   11.65
   4  -2   0  726.33   12.59
  -4   2   0  698.30   11.17
  -4   2   0  695.93   11.12
  -4   2   0  697.43   11.14
  -4   2   0  699.28   11.16
   4  -2   0  682.57   11.09
   4  -2   0  680.52   11.76
  -4   2   0  683.85   13.08
   4  -2   0  686.70   11.45
   4  -2   0  682.17   11.26
  -4   2   0  633.35   10.73
   4  -2   0  669.79   11.01
   4  -2   0  683.32   12.04
  -4   2   0  678.57   11.28
  -4   2   0  663.41   12.96
  -4   2   0  689.70   11.20
   4  -2   1   11.63    1.73
   4  -2   1   14.31    1.73
  -4   2  -1   10.65    1.75
  -4   2  -1   13.30    1.91
   4  -2   2  568.32   12.26
  -4   2  -2  575.50   12.89
  -4   2  -2  579.41   12.24
   4  -2   3    5.63    1.38
  -4   2  -3    3.99    1.49
  -4   2  -3    5.06    1.27
   4  -2   4   16.81    1.40
   4  -2   4   18.71    2.48
   4  -2   4   15.00    1.31
   4  -2   4   15.58    1.45
   4  -2   4   17.06    1.48
  -4   2  -4   18.48    2.80
  -4   2  -4   12.11    1.94
   4  -2   4   15.60    1.42
   4  -2   4   17.95    1.51
   4  -2   5  164.16    4.32
   4  -2   5  167.76    7.89
   4  -2   5  166.29    4.32
  -4   2  -5  165.01    8.23
  -4   2  -5  168.66    4.48
   4  -2   5  158.56    4.62
   4  -2   5  171.07    4.70
  -4   2  -5  156.60    7.80
   4  -2   5  162.50    4.76
   4  -2   5  171.41    4.71
   4  -2   5  174.56    4.77
   4  -2   6  347.97    6.15
   4  -2   6  339.96    6.04
  -4   2  -6  358.31    6.74
   4  -2   6  344.41    6.88
   4  -2   6  351.92    6.85
   4  -2   6  339.43    6.95
   4  -2   6  349.10    6.79
   4  -2   6  354.86    6.88
  -4   2  -7  168.27    4.61
   4  -2   7  157.60    4.60
   4  -2   7  162.01    4.56
   4  -2   7  159.44    4.73
   4  -2   7  160.05    4.54
   4  -2   7  164.41    4.64
  -4   2  -8  133.88    4.18
   4  -2   8  129.67    3.65
  -4   2  -8  134.52    3.95
   4  -2   8  131.30    3.95
   4  -2   8  131.33    3.87
   4  -2   8  131.91    3.86
   4  -2   8  132.30    3.92
   4  -2   9   36.20    1.66
  -4   2  -9   37.70    1.90
  -4   2  -9   38.02    2.02
   4  -2   9   35.20    1.83
   4  -2   9   35.85    1.81
   4  -2   9   35.53    1.75
   4  -2   9   36.66    1.84
  -4   2 -10   74.74    2.25
  -4   2 -10   83.02    2.27
  -4   2 -10   81.84    2.36
   4  -2  10   76.15    2.04
   4  -2  10   77.54    1.94
   4  -2  10   80.39    2.11
  -4   1  12   74.38    1.76
  -4   1  12   74.40    1.73
   4  -1 -11  176.55    3.56
   4  -1 -11  180.26    3.38
  -4   1  11  184.28    3.78
  -4   1  11  178.74    3.37
   4  -1 -11  178.15    3.54
   4  -1 -11  178.05    3.55
  -4   1  11  183.96    3.80
   4  -1 -10   25.59    1.68
   4  -1 -10   26.05    1.59
  -4   1  10   24.92    1.71
  -4   1  10   25.05    1.59
   4  -1 -10   22.38    1.58
   4  -1 -10   25.62    1.64
  -4   1  10   25.74    1.73
  -4   1  10   27.37    1.53
   4  -1  -9    2.49    0.75
   4  -1  -9    1.52    0.51
   4  -1  -9    2.91    0.69
  -4   1   9    3.03    0.81
   4  -1  -9    4.81    0.89
   4  -1  -9    3.17    0.73
  -4   1   9    2.79    0.73
  -4   1   9    2.91    0.69
   4  -1  -8  105.65    3.44
   4  -1  -8  110.10    3.88
   4  -1  -8  108.80    3.67
   4  -1  -8  107.76    3.56
  -4   1   8  116.55    4.02
   4  -1  -8  113.40    3.90
   4  -1  -8  111.66    3.72
  -4   1   8  113.23    3.94
  -4   1   8  113.57    3.72
   4  -1  -7  108.87    3.60
   4  -1  -7  111.44    6.46
   4  -1  -7  118.18    3.95
   4  -1  -7  116.22    3.83
  -4   1   7  106.22    6.02
  -4   1   7  105.58    6.08
   4  -1  -7   93.98    6.33
   4  -1  -7  104.29    6.54
   4  -1  -7  116.90    6.56
   4  -1  -7  112.61    6.39
   4  -1  -7  113.16    3.86
  -4   1   7  105.88    6.30
   4  -1  -7  109.34    6.33
  -4   1   7  107.50    6.07
  -4   1   7  101.38    5.90
   4  -1  -7  104.81    6.33
  -4   1   7   94.17    5.68
   4  -1  -7  111.53    3.67
  -4   1   7  113.88    6.48
  -4   1   7  107.32    6.11
  -4   1   7  120.64    4.02
  -4   1   7  116.35    3.77
   4  -1  -6    0.64    0.39
   4  -1  -6    0.52    0.52
   4  -1  -6   -1.47    0.98
   4  -1  -6    6.09    0.91
   4  -1  -6    1.90    1.09
  -4   1   6   -1.04    0.64
  -4   1   6    0.84    0.67
   4  -1  -6    0.36    0.65
   4  -1  -6    0.35    0.72
  -4   1   6   -2.27    1.03
   4  -1  -6   -4.12    1.22
   4  -1  -6   -1.12    0.77
   4  -1  -6    0.17    0.41
   4  -1  -6   -0.32    0.55
  -4   1   6    1.53    0.75
  -4   1   6   -0.04    0.55
   4  -1  -6    0.70    0.56
  -4   1   6   -1.64    0.89
  -4   1   6   -2.00    1.03
  -4   1   6    2.26    1.07
  -4   1   6    0.30    0.45
   4  -1  -5 2542.07   27.59
   4  -1  -5 2564.24   27.81
  -4   1   5 2511.73   25.16
  -4   1   5 2530.72   25.36
  -4   1   5 2481.38   25.89
   4  -1  -5 2496.87   28.33
   4  -1  -5 2498.56   26.35
   4  -1  -5 2527.72   26.20
   4  -1  -5 2556.75   26.23
  -4   1   5 2506.34   25.15
  -4   1   5 2479.48   25.10
   4  -1  -5 2527.13   27.05
  -4   1   5 2488.36   25.13
  -4   1   5 2439.59   27.37
   4  -1  -4  465.67   11.21
   4  -1  -4  496.59   11.71
  -4   1   4  466.06    9.96
  -4   1   4  483.69   10.16
  -4   1   4  475.38   10.29
  -4   1   4  473.79   10.03
   4  -1  -4  479.93   11.54
   4  -1  -4  473.07   10.44
   4  -1  -4  476.58   10.65
   4  -1  -4  487.34   10.56
   4  -1  -4  467.42   10.36
  -4   1   4  470.65   10.02
  -4   1   4  473.30   10.15
   4  -1  -4  477.98   10.91
  -4   1   4  469.27   10.12
  -4   1   4  478.28   11.34
   4  -1  -3    6.00    1.33
   4  -1  -3    6.41    1.42
  -4   1   3    6.90    1.11
  -4   1   3    6.18    1.08
  -4   1   3    5.07    1.04
  -4   1   3    8.31    1.28
   4  -1  -3    5.38    1.23
   4  -1  -3    4.04    0.96
   4  -1  -3    6.11    1.23
   4  -1  -3    6.79    1.21
   4  -1  -3    4.79    1.02
  -4   1   3    5.66    1.07
  -4   1   3    4.93    1.07
   4  -1  -3    5.16    1.17
  -4   1   3    5.99    1.12
  -4   1   3    5.56    1.33
  -4   1   3    5.26    1.31
   4  -1  -2 1966.13   20.71
   4  -1  -2 2199.00   22.43
  -4   1   2 2071.45   17.67
  -4   1   2 2060.69   17.69
  -4   1   2 2037.29   17.66
   4  -1  -2 1974.79   19.93
   4  -1  -2 2092.22   18.25
   4  -1  -2 2020.61   18.60
   4  -1  -2 2078.09   18.31
   4  -1  -2 2089.10   18.22
  -4   1   2 2085.65   17.63
  -4   1   2 2091.99   18.07
   4  -1  -2 2025.69   19.12
  -4   1   2 2094.02   18.14
  -4   1   2 2035.26   20.77
  -4   1   2 2002.89   21.15
   4  -1  -1  424.57    9.47
   4  -1  -1  427.04    7.98
  -4   1   1  415.68    7.38
  -4   1   1  401.69    7.28
  -4   1   1  404.81    7.35
  -4   1   1  398.70    7.30
   4  -1  -1  409.86    7.47
   4  -1  -1  411.23    7.82
   4  -1  -1  413.26    7.63
   4  -1  -1  417.41    7.59
  -4   1   1  419.91    7.37
   4  -1  -1  401.78    7.42
   4  -1  -1  402.23    7.98
  -4   1   1  409.74    7.47
  -4   1   1  394.55    8.54
  -4   1   1  382.67    8.95
   4  -1   0   58.49    3.41
   4  -1   0   54.81    3.08
   4  -1   0   53.69    2.63
   4  -1   0   55.57    2.77
  -4   1   0   48.03    3.23
   4  -1   0   55.53    2.70
   4  -1   0   55.23    2.70
   4  -1   0   55.35    2.66
   4  -1   0   54.52    2.82
  -4   1   0   53.40    2.96
  -4   1   0   55.08    3.31
   4  -1   1  508.47   10.07
   4  -1   1  518.92    9.83
  -4   1  -1  506.89    9.88
   4  -1   2   17.27    2.04
   4  -1   2   17.16    1.76
  -4   1  -2   17.18    2.10
  -4   1  -2   15.58    1.84
   4  -1   3  220.91    7.62
  -4   1  -3  227.34    7.65
  -4   1  -3  211.91    6.57
   4  -1   4   -0.68    0.74
  -4   1  -4    0.32    0.70
   4  -1   5   72.78    5.00
  -4   1  -5   72.45    5.22
   4  -1   5   67.02    2.88
  -4   1  -5   66.81    4.68
   4  -1   5   66.94    2.90
   4  -1   6  367.18   11.69
  -4   1  -6  377.20   12.42
   4  -1   6  364.71    6.96
   4  -1   6  366.44    6.79
  -4   1  -6  361.53   11.34
  -4   1  -6  363.49   11.67
   4  -1   6  377.78    7.19
   4  -1   6  378.44    7.01
   4  -1   6  385.58    6.99
   4  -1   7    0.88    0.68
   4  -1   7    0.19    0.48
   4  -1   7    1.93    0.70
   4  -1   7    0.48    0.49
   4  -1   7    0.59    0.46
  -4   1  -7    0.42    0.45
   4  -1   8   50.30    2.37
   4  -1   8   51.20    2.67
   4  -1   8   48.49    2.47
   4  -1   8   48.17    2.63
   4  -1   8   48.91    2.55
   4  -1   8   51.57    2.54
  -4   1  -8   50.13    2.43
   4  -1   9   51.03    2.14
   4  -1   9   54.73    2.39
  -4   1  -9   57.13    2.64
   4  -1   9   54.72    2.60
   4  -1   9   52.37    2.58
   4  -1   9   53.41    2.44
   4  -1   9   55.81    2.44
  -4   1  -9   54.85    2.35
  -4   1 -10   92.35    2.94
  -4   1 -10   89.73    2.98
   4  -1  10   87.56    2.85
   4  -1  10   86.78    2.54
   4  -1  10   87.82    2.66
   4  -1  10   87.56    2.58
  -4   1 -10   80.62    2.48
  -4   1 -11   45.63    1.62
  -4   1 -11   43.30    1.59
   4  -1  11   41.90    1.57
   4  -1  11   32.44    1.14
  -4   1 -11   35.64    1.20
   4   0 -12   36.47    1.15
  -4   0  12   68.05    1.60
   4   0 -11   21.48    1.23
   4   0 -11   21.69    1.29
  -4   0  11   22.76    1.36
  -4   0  11   21.75    1.27
   4   0 -11   20.48    1.17
   4   0 -11   22.38    1.34
  -4   0  11   20.95    1.26
   4   0 -10   65.92    2.60
   4   0 -10   69.46    2.66
  -4   0  10   66.75    2.70
  -4   0  10   68.06    2.63
   4   0 -10   65.77    2.56
   4   0 -10   66.64    2.68
  -4   0  10   67.51    2.65
  -4   0  10   62.92    2.30
   4   0  -9  115.09    3.81
   4   0  -9  116.52    3.78
  -4   0   9  118.42    3.93
  -4   0   9  112.58    3.72
   4   0  -9  117.16    3.81
   4   0  -9  114.21    3.80
  -4   0   9  117.03    3.82
  -4   0   9  120.68    3.62
   4   0  -8  236.69    5.68
   4   0  -8  231.46    5.23
   4   0  -8  241.30    5.55
  -4   0   8  240.11    5.78
   4   0  -8  238.70    5.63
   4   0  -8  229.38    5.50
  -4   0   8  245.22    5.69
   4   0  -7  244.18    5.30
   4   0  -7  277.08   10.14
   4   0  -7  259.61    5.85
   4   0  -7  254.89    5.63
   4   0  -7  256.98    5.67
  -4   0   7  250.05    9.82
  -4   0   7  262.24    9.42
  -4   0   7  273.73    9.63
   4   0  -7  264.37   10.43
   4   0  -7  260.27   10.04
  -4   0   7  278.29    6.10
  -4   0   7  261.21    9.38
   4   0  -7  264.40    9.71
   4   0  -7  255.41    9.56
   4   0  -7  271.25    5.94
   4   0  -7  253.60    9.58
  -4   0   7  259.88    9.29
  -4   0   7  260.47    9.32
   4   0  -7  257.58    9.74
  -4   0   7  259.13    9.31
   4   0  -7  255.86    5.73
  -4   0   7  260.66    9.50
  -4   0   7  272.70    5.95
   4   0  -6  125.33    3.72
  -4   0   6  125.34    6.51
   4   0  -6  133.67    6.74
   4   0  -6  134.17    4.05
   4   0  -6  122.59    3.83
   4   0  -6  140.91    6.27
  -4   0   6  138.89    6.34
  -4   0   6  130.69    6.17
   4   0  -6  130.95    6.87
   4   0  -6  129.69    6.68
  -4   0   6  132.18    6.19
   4   0  -6  126.96    6.30
   4   0  -6  131.08    6.35
  -4   0   6  118.82    5.54
   4   0  -6  124.01    3.86
   4   0  -6  131.78    6.37
  -4   0   6  132.45    6.18
  -4   0   6  132.11    6.14
   4   0  -6  131.63    6.53
  -4   0   6  129.29    6.09
  -4   0   6  123.72    6.28
  -4   0   6  128.78    3.96
   4   0  -5  285.78    9.12
   4   0  -5  299.88    8.90
  -4   0   5  286.65    8.26
  -4   0   5  283.97    8.23
   4   0  -5  269.50    9.01
   4   0  -5  293.33    9.25
  -4   0   5  288.57    8.43
   4   0  -5  284.73    8.60
  -4   0   5  287.99    7.73
   4   0  -5  294.26    8.66
   4   0  -5  293.20    8.65
  -4   0   5  296.76    8.42
  -4   0   5  286.04    8.28
   4   0  -5  286.42    8.81
  -4   0   5  285.88    8.30
  -4   0   5  275.72    8.87
  -4   0   5  281.35    8.95
  -4   0   4    1.30    0.82
   4   0  -4    3.53    1.09
   4   0  -4    2.68    1.03
  -4   0   4    0.39    0.47
  -4   0   4    0.12    0.47
   4   0  -4    0.52    0.70
   4   0  -4    0.79    0.79
  -4   0   4    0.88    0.52
   4   0  -4    0.49    0.59
   4   0  -4    0.92    0.62
   4   0  -4    0.94    0.67
  -4   0   4    1.48    0.53
  -4   0   4    0.66    0.61
   4   0  -4    0.69    0.64
  -4   0   4    0.29    0.48
  -4   0   4    1.41    0.84
  -4   0   4    0.97    0.62
   4   0  -3 1104.25   15.37
   4   0  -3 1213.21   16.40
  -4   0   3 1109.80   13.14
  -4   0   3 1116.22   13.23
  -4   0   3 1107.30   13.16
   4   0  -3 1132.08   14.98
   4   0  -3 1121.15   13.62
   4   0  -3 1153.25   14.01
   4   0  -3 1163.83   13.87
   4   0  -3 1166.85   13.84
  -4   0   3 1124.34   13.19
  -4   0   3 1156.94   13.34
   4   0  -3 1106.85   14.11
  -4   0   3 1135.35   13.28
  -4   0   3 1191.82   16.22
  -4   0   3 1148.48   14.76
   4   0  -2  234.16    6.60
   4   0  -2  245.17    7.10
  -4   0   2  228.10    5.20
  -4   0   2  228.67    5.24
  -4   0   2  227.22    5.21
   4   0  -2  225.06    5.42
   4   0  -2  230.43    5.94
   4   0  -2  224.69    5.41
   4   0  -2  226.17    5.44
   4   0  -2  230.65    5.49
   4   0  -2  221.63    5.36
  -4   0   2  224.37    5.12
  -4   0   2  221.74    5.22
   4   0  -2  230.54    5.64
  -4   0   2  219.39    5.70
  -4   0   2  226.19    5.25
  -4   0   2  242.11    6.88
   4   0  -1  105.54    4.20
   4   0  -1  110.55    4.64
   4   0  -1  110.51    3.98
   4   0  -1   95.35    3.40
   4   0  -1  103.72    3.14
   4   0  -1  106.77    3.28
   4   0  -1  104.36    3.18
   4   0  -1  102.64    3.12
   4   0  -1   94.01    3.21
  -4   0   1  102.66    3.33
  -4   0   1  104.23    4.23
  -4   0   1  103.77    4.22
   4   0   0  523.14    9.18
  -4   0   0  546.46    8.96
  -4   0   0  523.74    9.07
  -4   0  -1 1536.05   16.74
  -4   0  -1 1517.06   13.78
  -4   0  -1 1510.29   14.83
   4   0   2   28.29    2.24
   4   0   2   29.50    2.50
  -4   0  -2   30.49    2.45
  -4   0  -2   30.53    2.10
   4   0   3  396.14    8.02
   4   0   3  405.14    9.68
  -4   0  -3  382.53    8.95
  -4   0  -3  389.57    7.49
   4   0   4   29.89    2.22
   4   0   4   23.04    2.55
  -4   0  -4   24.44    2.41
   4   0   5  100.19    5.50
  -4   0  -5  104.95    5.89
  -4   0  -5   91.75    5.01
   4   0   6  271.31    9.45
   4   0   6  268.46    5.62
  -4   0  -6  278.59   10.25
   4   0   6  270.43    5.80
  -4   0  -6  254.47    8.77
  -4   0  -6  257.82    9.57
   4   0   6  265.30    5.74
   4   0   6  268.85    5.72
   4   0   6  256.82    5.76
   4   0   7    4.13    0.79
   4   0   7    2.00    0.59
   4   0   7    2.77    0.71
   4   0   7    1.33    0.88
  -4   0  -7    0.02    0.92
   4   0   7    2.77    0.70
   4   0   7    2.38    0.61
  -4   0  -7    0.13    0.63
  -4   0  -7   -0.84    0.94
   4   0   7    2.00    0.65
   4   0   7    0.75    0.44
   4   0   7    0.41    0.44
   4   0   7    1.04    0.55
   4   0   8   18.43    1.44
   4   0   8   16.56    1.57
   4   0   8   17.41    1.46
   4   0   8   18.31    1.50
   4   0   8   19.49    1.70
   4   0   8   16.05    1.53
   4   0   8   18.65    1.53
   4   0   8   17.09    1.64
   4   0   9  132.08    4.21
   4   0   9  126.18    3.68
   4   0   9  130.08    3.75
   4   0   9  131.41    4.21
   4   0   9  131.51    4.08
   4   0   9  129.40    3.75
  -4   0  -9  130.78    3.97
   4   0  10   26.91    1.78
   4   0  10   22.91    1.40
   4   0  10   20.89    1.35
   4   0  10   21.45    1.64
   4   0  10   23.12    1.58
   4   0  10   24.23    1.43
  -4   0 -10   23.68    1.59
  -4   0 -11    6.87    0.84
  -4   0 -11    5.27    0.76
   4   0  11    4.68    0.72
   4   0  11    5.48    0.79
   4   0  11    6.02    0.68
  -4   0 -11    4.96    0.69
  -4   0 -12   32.80    1.22
   4   0  12   32.24    1.20
   4   1 -11  116.06    2.80
  -4  -1  11  120.40    2.77
  -4  -1  11  115.06    2.74
   4   1 -11   98.26    2.08
   4   1 -11  114.05    2.83
  -4  -1  11  116.41    2.53
  -4  -1  11  103.88    2.32
   4   1 -11  108.59    2.46
  -4  -1  10   30.29    1.50
   4   1 -10   33.39    1.77
   4   1 -10   34.89    1.92
   4   1 -10   33.08    1.65
  -4  -1  10   32.71    1.83
  -4  -1  10   33.76    1.85
   4   1 -10   33.51    1.71
   4   1 -10   33.39    1.91
  -4  -1  10   34.86    1.78
  -4  -1  10   31.96    1.71
   4   1  -9  209.62    5.02
   4   1  -9  221.59    5.28
   4   1  -9  217.44    4.73
  -4  -1   9  231.55    5.30
  -4  -1   9  219.78    5.18
   4   1  -9  224.09    5.05
   4   1  -9  224.46    5.33
  -4  -1   9  228.28    5.09
  -4  -1   9  220.03    4.96
   4   1  -8  310.86    6.42
   4   1  -8  318.08    6.57
   4   1  -8  310.62    5.95
  -4  -1   8  323.23    6.52
  -4  -1   8  308.01    6.38
   4   1  -8  309.83    6.30
   4   1  -8  314.52    6.56
  -4  -1   8  306.27    6.18
   4   1  -7   32.30    3.45
   4   1  -7   31.72    2.09
   4   1  -7   27.18    1.94
  -4  -1   7   31.80    3.31
   4   1  -7   33.39    3.77
   4   1  -7   30.09    3.48
   4   1  -7   26.33    3.27
  -4  -1   7   35.41    2.21
  -4  -1   7   35.28    3.52
   4   1  -7   35.58    3.72
  -4  -1   7   32.15    3.22
   4   1  -7   34.36    3.48
   4   1  -7   32.19    2.07
  -4  -1   7   31.71    3.35
  -4  -1   7   30.95    3.25
   4   1  -7   36.88    3.71
  -4  -1   7   37.24    3.54
   4   1  -7   32.07    2.14
  -4  -1   7   26.80    3.07
  -4  -1   7   35.02    2.09
  -4  -1   7   32.68    3.67
   4   1  -6  597.73    8.02
   4   1  -6  682.47   15.04
   4   1  -6  618.43    8.77
   4   1  -6  610.47    8.48
   4   1  -6  618.93    8.68
  -4  -1   6  652.02   13.79
  -4  -1   6  643.83   13.64
   4   1  -6  656.01   15.33
   4   1  -6  667.52   15.01
  -4  -1   6  665.17   13.95
   4   1  -6  680.85   14.55
  -4  -1   6  638.53   12.95
   4   1  -6  660.00   14.23
   4   1  -6  627.78    8.75
   4   1  -6  662.12   14.33
  -4  -1   6  649.82   13.73
  -4  -1   6  663.66   13.84
   4   1  -6  678.27   14.72
  -4  -1   6  658.58   13.84
   4   1  -6  622.07    8.71
  -4  -1   6  632.48   13.66
  -4  -1   6  638.63   14.03
  -4  -1   6  658.43    8.65
  -4  -1   6  633.81   14.99
   4   1  -5   -0.90    0.69
   4   1  -5    2.71    0.93
  -4  -1   5    0.36    0.45
  -4  -1   5   -0.22    0.42
   4   1  -5    0.48    0.64
   4   1  -5    0.69    0.66
  -4  -1   5    0.63    0.54
   4   1  -5    1.19    0.78
   4   1  -5    0.80    0.74
   4   1  -5    0.15    0.53
  -4  -1   5   -0.06    0.52
  -4  -1   5   -1.27    0.70
   4   1  -5    0.96    0.62
  -4  -1   5    1.58    0.93
  -4  -1   5    0.76    0.64
  -4  -1   5   -0.62    0.73
  -4  -1   5    0.05    0.41
   4   1  -4 1432.91   18.67
   4   1  -4 1558.33   18.37
  -4  -1   4 1426.09   16.59
  -4  -1   4 1437.10   16.66
   4   1  -4 1416.33   18.37
   4   1  -4 1457.05   18.25
  -4  -1   4 1459.38   16.74
   4   1  -4 1468.96   17.35
   4   1  -4 1484.06   17.31
   4   1  -4 1489.87   17.39
  -4  -1   4 1438.75   19.05
  -4  -1   4 1437.94   16.63
  -4  -1   4 1471.12   16.72
   4   1  -4 1471.96   17.66
  -4  -1   4 1451.55   16.72
  -4  -1   4 1511.65   19.34
  -4  -1   4 1460.50   16.91
   4   1  -3    9.25    1.44
   4   1  -3   11.13    1.55
  -4  -1   3    6.40    1.08
  -4  -1   3    7.34    1.12
   4   1  -3    6.06    1.13
  -4  -1   3   10.35    1.59
   4   1  -3    6.61    1.15
  -4  -1   3    8.40    1.22
   4   1  -3    7.80    1.14
   4   1  -3    6.23    1.01
   4   1  -3    8.24    1.16
  -4  -1   3    8.86    1.20
  -4  -1   3    7.64    1.11
   4   1  -3    6.08    1.06
  -4  -1   3    6.70    1.07
  -4  -1   3    8.83    1.48
  -4  -1   3   10.01    1.27
   4   1  -2   14.23    1.65
   4   1  -2   14.92    1.74
   4   1  -2   19.64    1.67
  -4  -1   2   14.06    1.60
  -4  -1   2   13.08    1.17
  -4  -1   2   13.20    1.19
   4   1  -2   13.70    1.37
   4   1  -2   12.22    1.26
  -4  -1   2   12.29    1.18
   4   1  -2   14.45    1.31
   4   1  -2   12.95    1.23
   4   1  -2   12.77    1.22
  -4  -1   2   12.85    1.15
  -4  -1   2   11.74    1.13
   4   1  -2   13.53    1.30
  -4  -1   2   12.91    1.16
  -4  -1   2   13.11    1.69
  -4  -1   2   13.79    1.31
   4   1  -1  130.91    4.33
  -4  -1   1  130.38    4.18
   4   1  -1  130.49    4.82
   4   1  -1  134.48    4.50
   4   1  -1  131.89    4.48
  -4  -1   1  134.43    3.50
  -4  -1   1  134.27    4.77
  -4  -1   0  223.85    4.80
   4   1   0  229.98    5.29
   4   1   0  220.32    6.11
   4   1   0  233.69    6.15
   4   1   0  227.67    5.99
  -4  -1   0  227.22    4.72
  -4  -1   0  223.55    5.74
   4   1   1   43.78    2.71
   4   1   1   43.38    2.78
   4   1   1   39.83    2.66
  -4  -1  -1   37.99    2.24
  -4  -1  -1   45.59    2.21
   4   1   2  259.26    6.49
   4   1   2  259.87    6.99
   4   1   2  256.47    7.05
  -4  -1  -2  253.10    6.36
  -4  -1  -2  262.41    5.40
  -4  -1  -2  258.48    4.98
   4   1   3  532.13    9.42
   4   1   3  567.11   10.93
   4   1   3  566.99   10.92
  -4  -1  -3  559.34    9.83
   4   1   4  724.90   11.17
   4   1   4  713.55   13.06
  -4  -1  -4  746.20   13.36
  -4  -1  -4  736.64   11.82
   4   1   5  838.60   14.95
  -4  -1  -5  788.17   15.13
  -4  -1  -5  811.71   13.22
  -4  -1  -5  834.58   15.56
   4   1   6  207.06    7.90
  -4  -1  -6  215.50    8.65
  -4  -1  -6  215.02    7.27
  -4  -1  -6  209.00    8.39
   4   1   7  285.65    9.69
   4   1   7  293.59    5.86
  -4  -1  -7  296.07   10.81
   4   1   7  289.52    6.07
   4   1   7  284.34    5.89
   4   1   7  295.48    6.04
  -4  -1  -7  295.49   10.69
   4   1   7  288.69    6.04
   4   1   7  298.76    6.16
   4   1   7  296.23    6.26
   4   1   7  273.31    6.08
   4   1   8  159.00    4.33
   4   1   8  158.25    4.64
   4   1   8  163.45    4.60
   4   1   8  163.75    4.71
   4   1   8  160.45    4.64
   4   1   8  157.99    4.75
   4   1   8  157.69    4.78
   4   1   9  114.38    3.98
   4   1   9  120.71    3.90
  -4  -1  -9  116.20    3.72
   4   1   9  117.49    3.99
   4   1   9  114.31    3.91
   4   1   9  107.18    3.92
   4   1  10   36.48    2.16
   4   1  10   36.36    2.04
  -4  -1 -10   35.53    1.95
   4   1  10   35.41    2.11
   4   1  10   32.88    2.01
   4   1  10   34.63    2.13
  -4  -1 -10   38.42    2.17
   4   1  11    1.75    0.59
   4   1  11    2.19    0.54
  -4  -1 -11    1.66    0.47
   4   1  11    1.69    0.60
   4   1  11    2.17    0.55
  -4  -1 -11    2.50    0.64
  -4  -1 -12    0.49    0.40
  -4  -1 -12    0.05    0.34
   4   1  12    0.62    0.42
   4   1  12   -0.02    0.21
  -4  -1 -12    0.44    0.24
   4   1  12    0.23    0.23
  -4  -1 -12    0.28    0.33
   4   2 -11    3.85    0.51
   4   2 -11    4.70    0.60
  -4  -2  11    3.86    0.44
  -4  -2  11    5.29    0.63
   4   2 -11    4.60    0.59
  -4  -2  11    4.20    0.53
   4   2 -11    3.04    0.39
  -4  -2  10   74.77    2.26
   4   2 -10   87.15    2.86
  -4  -2  10   85.87    2.59
  -4  -2  10   86.51    2.77
   4   2 -10   80.17    2.23
   4   2 -10   88.25    2.88
   4   2 -10   82.52    2.52
  -4  -2  10   79.83    2.30
  -4  -2  10   82.64    2.62
   4   2 -10   84.40    2.56
   4   2  -9   28.81    1.79
   4   2  -9   31.66    2.02
   4   2  -9   27.73    1.73
  -4  -2   9   27.18    1.73
  -4  -2   9   30.96    1.93
   4   2  -9   27.18    1.65
   4   2  -9   29.67    1.70
   4   2  -9   30.10    1.97
  -4  -2   9   27.60    1.64
  -4  -2   9   30.10    1.90
   4   2  -8   55.64    2.69
   4   2  -8   60.10    2.71
   4   2  -8   59.19    2.90
  -4  -2   8   62.27    2.75
  -4  -2   8   58.49    2.77
   4   2  -8   58.79    2.67
   4   2  -8   57.01    2.56
   4   2  -8   59.57    2.89
  -4  -2   8   59.96    2.60
  -4  -2   8   61.92    2.87
   4   2  -7   50.92    2.61
   4   2  -7   53.81    2.75
   4   2  -7   52.26    2.55
  -4  -2   7   56.22    2.67
  -4  -2   7   51.87    2.64
   4   2  -7   53.12    2.61
   4   2  -7   49.90    2.43
   4   2  -7   51.39    2.71
   4   2  -6    9.48    1.16
   4   2  -6   10.68    2.00
   4   2  -6    9.48    1.20
  -4  -2   6    8.30    1.63
   4   2  -6   11.84    2.10
   4   2  -6   10.17    1.97
   4   2  -6   10.27    1.94
  -4  -2   6    8.68    1.07
  -4  -2   6    8.66    1.73
   4   2  -6   12.62    2.07
   4   2  -6    9.46    1.16
   4   2  -6    8.10    1.67
  -4  -2   6    8.32    1.72
  -4  -2   6   11.43    2.00
  -4  -2   6    7.69    1.86
  -4  -2   6    9.83    1.86
   4   2  -6    9.43    1.78
   4   2  -6    9.37    1.15
  -4  -2   6    6.48    1.58
  -4  -2   6    8.41    1.89
  -4  -2   6   14.51    2.11
   4   2  -5  551.76   12.88
  -4  -2   5  530.92   11.48
   4   2  -5  501.25   12.58
   4   2  -5  515.21   12.39
   4   2  -5  538.61   12.36
  -4  -2   5  525.02   11.57
   4   2  -5  530.80   12.03
  -4  -2   5  552.36   13.54
   4   2  -5  528.11   11.92
  -4  -2   5  540.05   11.95
  -4  -2   5  541.16   11.65
  -4  -2   5  535.69   11.61
   4   2  -5  518.78   11.97
  -4  -2   5  526.06   11.52
  -4  -2   5  530.84   12.24
  -4  -2   5  543.39   12.52
   4   2  -4  204.79    7.19
   4   2  -4  221.39    6.45
  -4  -2   4  207.85    6.47
  -4  -2   4  204.33    7.60
   4   2  -4  200.25    7.05
   4   2  -4  222.93    7.32
   4   2  -4  208.89    6.85
  -4  -2   4  200.85    6.40
   4   2  -4  207.05    6.70
   4   2  -4  222.15    6.91
  -4  -2   4  197.84    6.49
  -4  -2   4  210.56    6.50
  -4  -2   4  219.01    6.63
   4   2  -4  207.44    6.75
  -4  -2   4  213.51    6.56
  -4  -2   4  206.92    7.30
  -4  -2   4  208.58    7.13
  -4  -2   3    5.52    1.25
   4   2  -3    5.42    1.19
   4   2  -3    6.99    1.25
   4   2  -3    8.80    1.24
  -4  -2   3    3.40    0.77
   4   2  -3    4.14    0.95
   4   2  -3    4.52    0.98
   4   2  -3    4.96    0.97
  -4  -2   3    3.92    0.82
  -4  -2   3    3.08    0.80
   4   2  -3    3.55    0.82
   4   2  -3    3.53    0.82
  -4  -2   3    4.26    0.88
  -4  -2   3    4.35    0.94
  -4  -2   3    2.92    0.80
   4   2  -3    4.46    0.90
  -4  -2   3    3.83    0.83
  -4  -2   3    3.48    0.94
  -4  -2   3    4.81    1.19
   4   2  -2  121.69    4.55
  -4  -2   2  125.00    4.96
   4   2  -2  118.95    4.58
   4   2  -2  123.09    4.41
  -4  -2   2  117.54    4.83
  -4  -2   2  120.23    4.52
  -4  -2   2  118.65    4.22
   4   2  -1 1449.07   14.18
   4   2  -1 1490.44   15.89
   4   2  -1 1522.49   15.69
  -4  -2   1 1516.47   14.45
  -4  -2   1 1519.76   16.38
  -4  -2   1 1472.08   14.41
  -4  -2   1 1511.36   15.74
   4   2   0  146.46    3.92
  -4  -2   0  148.75    4.01
   4   2   0  147.50    4.97
   4   2   0  146.74    4.96
   4   2   0  145.51    5.02
  -4  -2   0  154.93    4.57
  -4  -2   0  151.54    4.28
  -4  -2   0  143.64    4.46
   4   2   1   80.39    2.50
   4   2   1   76.12    3.57
   4   2   1   73.16    3.60
   4   2   1   72.95    3.63
  -4  -2  -1   72.98    3.00
  -4  -2  -1   72.34    2.89
  -4  -2  -1   73.68    2.45
   4   2   2  801.59   11.59
   4   2   2  804.50   12.26
   4   2   2  781.80   12.13
  -4  -2  -2  810.96   10.36
   4   2   3   98.08    4.17
   4   2   3   96.61    4.43
   4   2   3   99.98    4.51
  -4  -2  -3   93.43    4.02
  -4  -2  -3   91.39    3.60
   4   2   4  204.12    6.15
   4   2   4  204.86    6.67
   4   2   4  186.60    6.46
  -4  -2  -4  202.03    5.50
  -4  -2  -4  194.39    6.75
   4   2   5  710.52   12.97
   4   2   5  682.10   12.94
  -4  -2  -5  683.61   13.39
  -4  -2  -5  699.68   13.97
   4   2   6    3.32    1.12
  -4  -2  -6    3.07    1.22
  -4  -2  -6    2.67    1.20
  -4  -2  -7  188.65    8.36
   4   2   7  173.42    7.30
   4   2   7  178.22    4.49
  -4  -2  -7  188.62    8.42
   4   2   7  181.64    4.75
   4   2   7  174.06    4.87
   4   2   7  186.84    4.67
  -4  -2  -7  172.30    8.07
   4   2   7  175.64    4.69
   4   2   7  170.09    4.68
   4   2   7  167.03    4.61
  -4  -2  -8  300.62   11.04
   4   2   8  297.12    5.93
  -4  -2  -8  291.89   11.15
   4   2   8  302.73    6.23
   4   2   8  315.26    6.45
   4   2   8  310.96    6.19
   4   2   8  297.40    6.15
   4   2   8  305.97    6.46
   4   2   8  313.05    6.60
   4   2   8  303.71    6.47
   4   2   9   27.98    1.98
   4   2   9   25.58    1.92
   4   2   9   29.95    2.01
   4   2   9   27.38    2.00
   4   2   9   25.81    1.99
   4   2   9   27.53    2.05
   4   2  10  993.79   11.10
   4   2  10 1031.80   11.39
  -4  -2 -10 1055.43   11.10
   4   2  10 1014.82   11.01
   4   2  10 1025.62   11.32
   4   2  10 1015.06   11.69
   4   2  10  991.84   11.62
   4   2  11    3.05    0.66
   4   2  11    2.86    0.66
  -4  -2 -11    3.30    0.68
   4   2  11    3.78    0.73
   4   2  11    2.21    0.59
  -4  -2 -11    3.38    0.75
   4   2  11    3.45    0.78
   4   2  12   50.38    1.86
   4   2  12   48.11    1.80
  -4  -2 -12   47.39    1.76
   4   2  12   46.25    1.73
   4   2  12   47.94    1.77
  -4  -2 -12   51.49    1.96
   4   3 -10   46.05    1.73
  -4  -3  10   44.21    1.62
   4   3 -10   47.44    1.77
   4   3 -10   51.61    1.97
  -4  -3  10   49.17    1.88
   4   3 -10   45.90    1.62
   4   3 -10   48.60    1.92
  -4  -3  10   50.91    1.90
   4   3 -10   49.94    1.67
  -4  -3   9   16.51    1.31
   4   3  -9   18.15    1.47
   4   3  -9   18.37    1.38
  -4  -3   9   18.79    1.24
  -4  -3   9   19.96    1.48
   4   3  -9   19.41    1.37
   4   3  -9   20.38    1.56
  -4  -3   9   16.46    1.37
   4   3  -9   17.10    1.28
   4   3  -9   17.56    1.21
   4   3  -8   74.53    2.94
   4   3  -8   82.57    3.32
   4   3  -8   76.79    3.04
  -4  -3   8   82.49    2.90
  -4  -3   8   81.46    3.15
   4   3  -8   79.26    2.85
   4   3  -8   76.25    2.98
   4   3  -8   78.76    3.25
  -4  -3   8   85.04    3.24
   4   3  -8   80.32    2.93
   4   3  -7  205.44    5.13
   4   3  -7  207.75    5.45
   4   3  -7  204.54    5.18
  -4  -3   7  214.07    4.87
  -4  -3   7  209.47    5.17
   4   3  -7  208.99    4.94
   4   3  -7  209.75    5.14
   4   3  -7  205.56    5.38
  -4  -3   7  211.53    5.25
   4   3  -7  212.51    5.04
   4   3  -6   69.73    5.07
   4   3  -6   62.18    2.86
   4   3  -6   62.81    2.95
   4   3  -6   64.56    2.88
  -4  -3   6   62.86    2.80
   4   3  -6   63.95    2.79
  -4  -3   6   61.47    5.04
   4   3  -6   63.85    2.83
   4   3  -6   66.47    3.03
  -4  -3   6   59.35    4.86
   4   3  -6   62.71    2.75
   4   3  -5  220.80    8.43
   4   3  -5  209.93    8.15
  -4  -3   5  211.17    7.97
   4   3  -5  206.91    5.02
   4   3  -5  217.67    5.25
   4   3  -5  210.89    8.43
  -4  -3   5  220.06    8.93
   4   3  -5  212.01    7.93
  -4  -3   5  216.18    7.72
   4   3  -5  212.63    7.89
   4   3  -5  217.19    7.96
   4   3  -5  212.39    4.96
  -4  -3   5  205.95    7.75
  -4  -3   5  221.34    7.77
  -4  -3   5  221.05    7.76
   4   3  -5  213.28    7.92
  -4  -3   5  210.95    7.62
   4   3  -5  211.26    5.22
  -4  -3   5  215.87    7.95
  -4  -3   5  207.88    8.41
  -4  -3   5  221.74    7.79
   4   3  -4  154.89    6.52
  -4  -3   4  158.86    7.10
  -4  -3   4  160.09    6.01
   4   3  -4  148.08    6.41
   4   3  -4  151.75    6.28
   4   3  -4  156.98    6.21
  -4  -3   4  154.33    5.93
   4   3  -4  156.60    6.14
   4   3  -4  155.76    6.12
  -4  -3   4  161.15    6.16
  -4  -3   4  156.14    5.94
  -4  -3   4  152.06    5.87
   4   3  -4  151.71    6.06
  -4  -3   4  156.58    5.99
  -4  -3   4  152.05    6.41
  -4  -3   4  140.64    6.48
  -4  -3   4  156.10    6.47
   4   3  -3   20.89    2.19
  -4  -3   3   22.55    2.55
   4   3  -3   25.81    2.29
   4   3  -3   22.92    2.24
   4   3  -3   21.03    2.07
   4   3  -3   24.36    2.21
   4   3  -3   20.87    2.01
   4   3  -3   23.23    2.13
   4   3  -3   24.24    2.13
  -4  -3   3   20.28    2.23
  -4  -3   3   21.28    2.40
  -4  -3   3   20.63    2.24
   4   3  -2  642.29   10.92
   4   3  -2  603.11   10.08
   4   3  -2  621.90   11.16
  -4  -3   2  618.16   11.70
  -4  -3   2  617.92   11.29
  -4  -3   2  635.89   12.20
   4   3  -1  101.46    3.82
   4   3  -1   94.96    4.02
   4   3  -1  107.79    4.61
  -4  -3   1   99.52    4.32
  -4  -3   1   97.65    4.34
  -4  -3   1   97.12    4.46
   4   3   0  433.49    6.71
   4   3   0  418.54    8.40
  -4  -3   0  418.72    6.87
   4   3   0  425.71    9.02
  -4  -3   0  397.06    8.40
  -4  -3   0  392.62    8.38
  -4  -3   0  408.21    8.35
   4   3   1 2010.52   18.66
  -4  -3  -1 1994.28   17.00
   4   3   1 2077.81   20.11
   4   3   1 1928.87   19.62
  -4  -3  -1 2036.08   18.97
  -4  -3  -1 1921.09   17.62
  -4  -3  -1 1977.86   15.49
   4   3   2  380.59    8.31
  -4  -3  -2  386.46    8.23
   4   3   2  399.81    8.93
   4   3   2  381.70    8.74
   4   3   3  325.49    7.90
  -4  -3  -3  311.24    8.07
   4   3   3  336.85    8.34
   4   3   3  318.22    8.21
  -4  -3  -3  334.61    7.05
  -4  -3  -3  336.77    6.20
  -4  -3  -3  302.16    7.65
  -4  -3  -4  421.01   10.12
   4   3   4  422.03    9.66
   4   3   4  404.12    9.52
  -4  -3  -4  415.69    9.01
  -4  -3  -4  417.70    9.77
  -4  -3  -5   22.27    2.54
   4   3   5   23.03    2.36
   4   3   5   21.06    2.30
  -4  -3  -5   27.50    2.63
  -4  -3  -5   21.72    2.48
  -4  -3  -6  349.02   10.68
   4   3   6  360.32    9.45
   4   3   6  325.12    9.19
  -4  -3  -6  351.09   10.22
  -4  -3  -6  330.85   10.38
  -4  -3  -7   27.56    3.13
   4   3   7   25.82    2.80
  -4  -3  -7   28.45    3.25
   4   3   7   28.37    1.89
   4   3   7   28.12    1.97
   4   3   7   30.06    1.87
   4   3   7   28.87    1.95
   4   3   7   27.77    1.90
  -4  -3  -8  519.23   14.48
   4   3   8  532.03    7.90
  -4  -3  -8  530.37   14.79
   4   3   8  502.80    7.71
   4   3   8  518.51    8.31
   4   3   8  521.81    8.68
   4   3   8  529.15    7.96
  -4  -3  -8  508.83   14.54
   4   3   8  519.32    8.41
   4   3   8  517.57    8.43
   4   3   8  508.01    8.29
   4   3   9    1.43    0.67
  -4  -3  -9   -0.04    0.37
   4   3   9    0.53    0.42
   4   3   9    0.53    0.49
   4   3   9    1.91    0.70
   4   3   9    0.51    0.45
   4   3   9    0.00    0.32
   4   3   9   -0.38    0.56
   4   3   9    0.34    0.51
  -4  -3 -10   20.76    1.60
  -4  -3 -10   19.40    1.46
   4   3  10   19.71    1.57
   4   3  10   21.23    1.75
   4   3  10   20.75    1.55
   4   3  10   20.43    1.70
   4   3  10   19.62    1.74
   4   3  10   19.95    1.74
  -4  -3 -11  125.28    3.39
  -4  -3 -11  119.86    3.19
   4   3  11  118.38    3.36
   4   3  11  118.88    3.64
  -4  -3 -11  127.42    3.68
   4   3  11  114.86    3.23
   4   3  11  121.64    3.63
   4   3  11  118.86    3.78
   4   3  11  118.52    3.75
  -4  -3 -12   76.63    2.10
   4   3  12   73.33    2.14
   4   3  12   81.74    2.55
  -4  -3 -12   79.85    2.46
   4   3  12   71.19    2.06
   4   3  12   79.17    2.42
   4   3  12   76.74    2.57
  -4  -3 -12   79.81    2.53
  -4  -3 -13  129.46    2.33
   4   3  13  135.14    2.32
  -4  -3 -13  128.31    2.31
  -4  -4  10   60.83    1.50
   4   4 -10   76.38    1.85
   4   4 -10   63.89    1.64
  -4  -4  10   77.42    1.83
   4   4 -10   72.14    1.83
  -4  -4  10   80.65    1.95
  -4  -4   9   57.67    2.11
   4   4  -9   56.24    1.97
   4   4  -9   58.50    2.20
   4   4  -9   55.09    2.11
  -4  -4   9   50.04    1.67
  -4  -4   9   57.27    2.11
   4   4  -9   57.21    2.12
   4   4  -9   56.05    2.19
  -4  -4   9   59.04    2.20
   4   4  -9   61.31    2.01
   4   4  -9   53.78    1.96
  -4  -4   8   65.83    2.66
   4   4  -8   65.12    2.52
   4   4  -8   64.43    2.73
   4   4  -8   65.24    2.68
  -4  -4   8   72.32    2.56
  -4  -4   8   67.55    2.66
   4   4  -8   65.07    2.67
   4   4  -8   66.73    2.78
  -4  -4   8   63.95    2.63
   4   4  -8   63.54    2.50
   4   4  -8   66.24    2.62
   4   4  -7   44.41    2.47
   4   4  -7   44.19    2.41
  -4  -4   7   44.42    2.29
   4   4  -7   46.55    2.47
   4   4  -7   45.19    2.50
  -4  -4   7   47.31    2.43
   4   4  -7   41.26    2.24
   4   4  -7   43.31    2.34
   4   4  -6  145.95    4.51
   4   4  -6  141.83    4.34
  -4  -4   6  143.11    4.14
   4   4  -6  129.27    3.81
   4   4  -6  132.84    4.25
   4   4  -6  143.18    4.47
  -4  -4   6  141.03    4.22
   4   4  -6  136.15    4.11
   4   4  -6  135.64    4.23
   4   4  -5   26.29    3.03
  -4  -4   5   29.08    3.29
   4   4  -5   31.22    2.09
   4   4  -5   29.37    1.99
  -4  -4   5   31.24    3.54
  -4  -4   5   31.24    1.91
   4   4  -5   30.73    1.90
   4   4  -5   27.80    1.93
   4   4  -5   29.83    2.03
  -4  -4   5   32.82    3.68
   4   4  -5   30.87    2.02
   4   4  -4   15.14    2.17
   4   4  -4   18.42    1.55
  -4  -4   4   16.98    2.47
  -4  -4   4   15.17    2.32
   4   4  -4   12.49    1.23
   4   4  -4   11.67    1.22
   4   4  -4   13.25    1.34
  -4  -4   4   14.46    2.34
  -4  -4   4   12.83    1.93
   4   4  -4   14.34    1.34
   4   4  -3  252.50    8.01
  -4  -4   3  257.50    9.08
   4   4  -3  272.26    8.38
  -4  -4   3  253.01    8.28
  -4  -4   3  249.93    8.87
  -4  -4   3  255.02    8.75
  -4  -4   2  242.47    8.27
  -4  -4   2  241.19    8.04
   4   4  -2  263.52    8.14
  -4  -4   2  233.89    8.16
   4   4  -2  245.89    7.15
   4   4  -1    0.48    0.33
   4   4  -1    0.62    0.58
  -4  -4   1    0.58    0.74
  -4  -4   1    1.17    0.83
  -4  -4   1    0.57    0.65
   4   4   0   41.94    2.79
   4   4   0   42.58    3.23
  -4  -4   0   38.63    2.99
  -4  -4   0   39.13    3.03
  -4  -4   0   38.92    3.00
   4   4   0   40.00    2.42
   4   4   1 4516.20   29.23
  -4  -4  -1 4469.15   27.66
  -4  -4  -1 4385.03   31.33
   4   4   1 4367.38   23.29
  -4  -4  -2   57.06    3.39
   4   4   2   60.83    3.78
  -4  -4  -2   56.64    3.62
  -4  -4  -2   53.83    3.44
  -4  -4  -2   50.61    2.83
  -4  -4  -3 1319.85   17.39
   4   4   3 1315.30   17.34
  -4  -4  -3 1349.73   16.16
  -4  -4  -4  465.23   11.05
   4   4   4  472.22   10.60
  -4  -4  -4  471.85    9.45
   4   4   4  469.89   10.51
  -4  -4  -4  456.70   10.43
  -4  -4  -5   37.66    3.41
   4   4   5   42.46    3.28
   4   4   5   39.04    3.12
  -4  -4  -5   41.09    3.18
  -4  -4  -5   40.33    3.43
  -4  -4  -6  979.94   18.30
   4   4   6  999.35   15.97
  -4  -4  -6  960.87   16.79
  -4  -4  -6  994.45   18.06
   4   4   7    1.30    0.54
  -4  -4  -7   -0.92    0.73
  -4  -4  -7    2.07    0.96
   4   4   7    0.97    0.45
   4   4   7    0.91    0.50
   4   4   7    2.24    0.64
  -4  -4  -7    1.05    1.01
   4   4   7    0.50    0.41
   4   4   7    1.66    0.62
   4   4   7    2.38    0.61
   4   4   8    0.20    0.42
   4   4   8    2.69    0.64
  -4  -4  -8    2.37    1.16
  -4  -4  -8    3.37    1.32
   4   4   8    0.29    0.48
   4   4   8    0.72    0.48
  -4  -4  -8    2.40    1.24
   4   4   8    0.40    0.41
   4   4   8    0.16    0.43
   4   4   8    0.97    0.54
   4   4   8    0.99    0.61
   4   4   9 1558.88   13.29
   4   4   9 1573.61   14.56
   4   4   9 1531.21   15.02
   4   4   9 1464.54   12.92
   4   4   9 1514.12   14.61
   4   4   9 1559.85   14.71
   4   4   9 1513.32   14.32
   4   4  10  596.18    8.81
   4   4  10  592.63    9.06
  -4  -4 -10  630.03    7.92
   4   4  10  625.88    9.06
   4   4  10  616.17    9.11
   4   4  10  586.44    8.74
  -4  -4 -11   37.62    1.99
  -4  -4 -11   34.98    1.81
   4   4  11   35.80    2.04
   4   4  11   37.80    2.07
   4   4  11   37.15    2.11
   4   4  11   35.00    2.03
  -4  -4 -12    1.49    0.42
  -4  -4 -12    1.06    0.41
   4   4  12    1.41    0.52
  -4  -4 -12    1.63    0.49
   4   4  12    1.24    0.47
   4   4  12    1.08    0.49
   4   4  13   41.84    1.37
  -4  -4 -13   41.78    1.35
  -4  -4 -13   40.96    1.34
  -4  -5   9   46.73    1.56
   4   5  -9   45.39    1.46
  -4  -5   9   43.89    1.35
   4   5  -9   46.89    1.58
  -4  -5   9   44.94    1.42
   4   5  -9   46.14    1.60
  -4  -5   9   47.98    1.58
   4   5  -9   43.22    1.44
  -4  -5   8   33.85    1.72
   4   5  -8   32.56    1.43
   4   5  -8   31.41    1.62
   4   5  -8   35.13    1.79
  -4  -5   8   33.59    1.56
  -4  -5   8   31.40    1.52
   4   5  -8   33.38    1.75
   4   5  -8   30.71    1.65
  -4  -5   8   30.27    1.59
  -4  -5   8   33.48    1.66
   4   5  -8   32.52    1.52
   4   5  -8   30.93    1.66
  -4  -5   7   13.62    1.30
   4   5  -7   13.05    1.11
   4   5  -7   13.86    1.29
  -4  -5   7   12.63    1.13
   4   5  -7   14.68    1.38
   4   5  -7   13.40    1.30
   4   5  -7   12.19    1.25
  -4  -5   7   12.34    1.19
   4   5  -7   11.07    1.10
   4   5  -7   13.34    1.30
  -4  -5   6  190.84    4.89
   4   5  -6  183.34    4.39
   4   5  -6  185.62    4.88
   4   5  -6  179.93    4.89
  -4  -5   6  188.95    4.48
   4   5  -6  179.37    4.89
   4   5  -6  185.23    4.98
  -4  -5   6  191.23    4.68
   4   5  -6  176.09    4.54
   4   5  -6  184.82    4.94
   4   5  -5  515.57    7.61
   4   5  -5  524.65    8.38
   4   5  -5  507.54    8.33
   4   5  -5  495.49    8.30
   4   5  -5  514.65    8.41
  -4  -5   5  518.54    7.83
   4   5  -5  526.63    8.03
   4   5  -5  510.25    8.39
   4   5  -4   17.85    2.51
   4   5  -4   20.02    1.54
   4   5  -4   20.56    1.71
  -4  -5   4   22.74    3.10
   4   5  -4   19.43    1.62
  -4  -5   4   19.12    2.81
   4   5  -4   19.21    1.66
   4   5  -4   19.46    1.68
  -4  -5   4   11.73    2.33
  -4  -5   4   22.87    1.64
   4   5  -4   19.66    1.57
   4   5  -4   23.43    1.83
  -4  -5   3   33.48    3.56
   4   5  -3   34.80    1.95
   4   5  -3   36.66    2.17
   4   5  -3   36.82    2.16
   4   5  -3   37.30    3.52
   4   5  -3   32.55    2.07
  -4  -5   3   34.09    3.26
   4   5  -3   37.88    2.23
  -4  -5   3   32.18    3.54
  -4  -5   3   35.28    3.64
   4   5  -3   32.41    1.97
   4   5  -3   32.00    2.07
   4   5  -3   36.90    3.29
   4   5  -2  239.03    8.68
  -4  -5   2  226.95    8.93
  -4  -5   2  236.06    8.90
  -4  -5   2  221.07    8.62
  -4  -5   1  686.04   14.88
  -4  -5   1  680.82   14.53
  -4  -5   1  689.17   14.61
   4   5   0   35.00    3.31
  -4  -5   0   34.06    3.15
  -4  -5   0   30.95    3.07
  -4  -5   0   29.51    2.99
   4   5   0   38.89    2.83
  -4  -5  -1 1018.69   14.83
  -4  -5  -1  986.86   16.53
   4   5   1 1007.60   13.55
  -4  -5  -2   69.84    4.12
   4   5   2   73.61    4.59
  -4  -5  -2   68.33    4.41
  -4  -5  -2   66.11    4.32
   4   5   2   65.84    3.34
  -4  -5  -3  118.78    5.67
   4   5   3  131.79    6.04
  -4  -5  -3  114.66    5.78
  -4  -5  -3  115.22    5.75
  -4  -5  -4  851.43   16.02
   4   5   4  873.41   15.50
  -4  -5  -4  819.67   15.86
  -4  -5  -4  856.73   14.75
  -4  -5  -5   91.53    5.56
   4   5   5   83.84    4.87
  -4  -5  -5   76.15    4.86
   4   5   6  289.97    5.62
   4   5   6  283.42    5.98
  -4  -5  -6  290.06   10.47
   4   5   6  289.85    6.05
   4   5   6  276.53    5.99
   4   5   6  277.10    5.61
  -4  -5  -7  205.70    9.14
   4   5   7  212.81    5.22
   4   5   7  197.70    4.85
   4   5   7  210.38    5.38
   4   5   7  204.23    5.30
  -4  -5  -7  199.07    8.88
   4   5   7  202.20    4.84
   4   5   7  206.79    5.21
   4   5   8   52.27    2.60
   4   5   8   51.70    2.59
   4   5   8   54.42    2.81
   4   5   8   52.23    2.78
   4   5   8   47.45    2.36
   4   5   8   54.02    2.79
   4   5   8   53.18    2.62
   4   5   8   51.08    2.52
   4   5   9  330.57    6.25
   4   5   9  334.90    6.51
   4   5   9  324.52    6.93
   4   5   9  329.79    5.93
   4   5   9  323.89    6.84
   4   5   9  339.11    6.87
   4   5   9  333.37    6.63
   4   5   9  320.85    6.37
   4   5  10  248.32    5.43
   4   5  10  236.17    5.68
  -4  -5 -10  246.15    5.17
   4   5  10  239.94    5.59
   4   5  10  243.99    5.51
   4   5  10  232.16    5.28
  -4  -5 -11    6.36    0.91
  -4  -5 -11    6.28    0.85
   4   5  11    6.37    0.89
   4   5  11    6.03    0.97
  -4  -5 -11    6.56    0.81
   4   5  11    6.96    0.98
   4   5  11    6.42    0.94
   4   5  11    5.96    0.88
  -4  -5 -12  128.74    3.04
  -4  -5 -12  125.78    2.82
   4   5  12  120.85    2.92
  -4  -5 -12  125.23    3.11
  -4  -5 -12  116.97    2.44
   4   5  12  121.26    3.00
   4   5  12  122.16    3.06
  -4  -5 -13    4.69    0.51
  -4  -6   8   31.59    1.33
  -4  -6   8   28.67    1.15
   4   6  -8   27.66    1.28
   4   6  -8   30.00    1.33
  -4  -6   8   29.52    1.23
  -4  -6   8   28.60    1.12
   4   6  -8   29.65    1.30
  -4  -6   7  484.46    5.67
  -4  -6   7  510.49    6.46
   4   6  -7  493.04    5.94
   4   6  -7  503.63    6.66
  -4  -6   7  514.67    6.20
   4   6  -7  520.43    6.76
  -4  -6   7  507.83    6.27
   4   6  -7  505.28    5.84
  -4  -6   7  515.46    5.95
   4   6  -7  506.23    6.63
  -4  -6   6  381.99    6.33
   4   6  -6  363.09    5.99
   4   6  -6  361.59    6.41
  -4  -6   6  366.77    6.06
   4   6  -6  367.38    6.51
   4   6  -6  358.01    6.18
  -4  -6   6  351.49    5.97
   4   6  -6  364.28    5.83
  -4  -6   6  358.22    5.64
   4   6  -6  368.05    6.47
  -4  -6   5   21.19    1.66
   4   6  -5   22.03    1.65
   4   6  -5   20.64    1.73
   4   6  -5   22.31    1.71
   4   6  -5   21.51    1.75
  -4  -6   5   20.82    1.49
   4   6  -5   21.33    1.58
   4   6  -5   20.18    1.71
  -4  -6   4   75.56    3.05
   4   6  -4   75.28    3.10
   4   6  -4   68.94    3.13
   4   6  -4   74.28    2.98
   4   6  -4   74.53    3.26
   4   6  -4   73.64    3.16
   4   6  -4   77.33    3.06
   4   6  -4   75.74    3.28
  -4  -6   3 1194.32   11.82
   4   6  -3 1163.31   10.90
   4   6  -3 1191.08   12.35
   4   6  -3 1166.95   12.63
   4   6  -3 1137.22   11.95
   4   6  -3 1153.92   12.03
   4   6  -3 1146.53   12.68
   4   6  -3 1179.64   12.59
   4   6  -3 1167.62   11.92
   4   6  -3 1161.17   12.73
  -4  -6   2  694.54    8.66
   4   6  -2  657.71    8.20
   4   6  -2  673.98    9.21
   4   6  -2  672.85    9.46
   4   6  -2  703.45   16.39
   4   6  -2  698.54    9.33
   4   6  -2  661.80    9.25
   4   6  -2  691.50    9.64
   4   6  -2  671.69    9.43
  -4  -6   2  667.27   16.45
  -4  -6   2  656.92   16.22
  -4  -6   2  639.81   15.92
   4   6  -2  690.00    8.97
   4   6  -2  674.59    9.56
   4   6  -1    0.86    0.64
   4   6  -1    1.43    0.48
   4   6  -1    1.41    0.54
   4   6  -1    1.09    0.53
   4   6  -1    2.10    1.15
   4   6  -1    1.52    0.58
   4   6  -1    1.21    0.54
  -4  -6   1    0.58    1.02
   4   6  -1    0.63    0.43
  -4  -6   1   -0.24    0.63
  -4  -6   1    0.04    0.86
   4   6  -1    1.22    0.51
   4   6  -1    1.70    0.61
   4   6   0  198.05    4.84
   4   6   0  204.63    8.67
   4   6   0  206.81    5.07
  -4  -6   0  187.35    8.13
  -4  -6   0  184.24    8.28
  -4  -6   0  185.58    8.21
   4   6   0  200.01    7.43
   4   6   0  204.16    4.66
   4   6   0  197.00    4.96
   4   6   1   26.99    3.17
  -4  -6  -1   29.53    3.24
  -4  -6  -1   24.48    3.01
  -4  -6  -1   23.59    2.96
   4   6   1   28.74    2.74
  -4  -6  -2 1506.33   21.09
  -4  -6  -2 1457.56   22.31
  -4  -6  -2 1435.34   22.18
   4   6   2 1436.69   18.55
  -4  -6  -3  157.87    7.15
   4   6   3  174.22    7.66
  -4  -6  -3  150.56    7.24
  -4  -6  -3  147.61    7.22
  -4  -6  -4  133.11    6.83
   4   6   4  131.82    6.57
   4   6   4  125.96    4.07
   4   6   4  130.38    4.14
  -4  -6  -4  119.72    6.52
  -4  -6  -4  122.75    6.69
   4   6   4  142.96    4.05
   4   6   5  408.79    6.67
   4   6   5  403.17    7.17
  -4  -6  -5  428.57   12.77
   4   6   5  429.70   11.70
   4   6   5  417.98    7.50
   4   6   5  418.62    7.51
   4   6   5  408.90    7.35
  -4  -6  -5  408.42   12.26
   4   6   5  405.84    6.93
   4   6   5  423.37    7.03
   4   6   6   65.34    2.78
   4   6   6   60.01    2.88
  -4  -6  -6   68.03    5.32
   4   6   6   64.17    2.97
  -4  -6  -6   60.97    4.86
   4   6   6   62.36    2.97
   4   6   6   56.73    2.74
  -4  -6  -6   52.22    4.37
   4   6   6   61.82    2.72
   4   6   6   61.34    2.76
   4   6   7   18.94    1.71
   4   6   7   18.64    1.63
   4   6   7   19.43    1.72
   4   6   7   17.36    1.61
   4   6   7   19.59    1.53
   4   6   7   18.69    1.62
   4   6   8   23.78    1.78
   4   6   8   22.66    1.85
   4   6   8   24.15    1.92
   4   6   8   22.14    1.59
   4   6   8   22.47    1.80
   4   6   9   21.35    1.61
   4   6   9   20.25    1.50
   4   6   9   22.83    1.87
   4   6   9   21.42    1.78
   4   6   9   21.11    1.60
   4   6  10    9.49    1.00
  -4  -6 -10    9.18    0.96
   4   6  10    7.71    1.11
   4   6  10    7.59    1.12
   4   6  10    7.51    1.05
   4   6  10    8.35    1.01
   4   6  10    9.23    1.01
   4   6  11    3.38    0.60
   4   6  11    4.15    0.81
  -4  -6 -11    4.81    0.73
   4   6  11    3.66    0.70
   4   6  11    2.98    0.64
   4   6  11    5.03    0.72
  -4  -6 -12   97.56    2.53
  -4  -6 -12   94.93    2.34
  -4  -6 -12   93.63    2.20
   4   6  12   95.67    2.48
   4   6  12   93.40    2.32
  -4  -7   7    5.37    0.57
  -4  -7   7    4.87    0.54
   4   7  -7    4.55    0.58
  -4  -7   7    4.82    0.54
   4   7  -7    5.38    0.61
  -4  -7   6   41.43    1.68
  -4  -7   6   48.43    1.87
  -4  -7   6   43.20    1.78
   4   7  -6   42.07    1.89
  -4  -7   6   43.87    1.80
   4   7  -6   43.71    1.63
   4   7  -6   44.65    1.93
  -4  -7   5   11.13    1.08
  -4  -7   5    9.07    0.99
  -4  -7   5   13.70    1.11
   4   7  -5    8.09    0.86
   4   7  -5    8.18    1.05
  -4  -7   5    9.70    1.06
   4   7  -5   10.60    0.98
   4   7  -5   10.90    1.19
  -4  -7   5    8.87    1.00
   4   7  -5    9.51    0.96
   4   7  -5   10.45    1.14
  -4  -7   4    0.60    0.46
   4   7  -4    0.90    0.49
   4   7  -4    0.15    0.55
  -4  -7   4    1.01    0.63
   4   7  -4    0.16    0.41
   4   7  -4   -0.01    0.37
   4   7  -4   -0.55    0.63
  -4  -7   4    0.22    0.46
   4   7  -4    0.19    0.43
   4   7  -4   -0.23    0.59
  -4  -7   3    1.21    0.50
   4   7  -3    1.14    0.53
   4   7  -3    0.77    0.57
   4   7  -3    1.29    0.55
   4   7  -3    0.81    0.55
  -4  -7   3    1.06    0.50
   4   7  -3    1.09    0.59
   4   7  -3    1.12    0.65
  -4  -7   2  152.03    4.03
   4   7  -2  140.20    4.14
  -4  -7   2  150.63    4.18
   4   7  -2  146.45    4.42
   4   7  -2  145.49    4.44
   4   7  -2  143.04    4.53
  -4  -7   2  151.56    4.17
   4   7  -2  146.69    4.24
   4   7  -2  145.76    4.54
   4   7  -1  338.24    6.80
  -4  -7   1  343.23    6.15
   4   7  -1  335.49    6.85
   4   7  -1  344.67    6.95
  -4  -7   1  344.92    6.17
   4   7  -1  353.47    6.56
   4   7  -1  351.18    6.99
   4   7   0  449.57    7.87
   4   7   0  463.71    8.10
   4   7   0  481.17    8.12
  -4  -7   0  465.01    6.94
   4   7   0  472.26    7.51
   4   7   0  480.62    8.08
   4   7   1  384.57    7.29
   4   7   1  402.64    7.55
   4   7   1  399.23    7.38
  -4  -7  -1  367.45   12.05
  -4  -7  -1  383.03   12.64
  -4  -7  -1  364.07   12.17
   4   7   1  405.29    6.90
   4   7   1  398.93    7.32
   4   7   2    4.66    0.83
   4   7   2    3.68    1.38
   4   7   2    4.08    0.86
   4   7   2    4.31    0.89
  -4  -7  -2    5.48    1.55
  -4  -7  -2    1.97    1.10
   4   7   2    3.35    0.72
  -4  -7  -2    4.74    1.65
   4   7   2    4.44    0.89
   4   7   2    3.99    0.78
   4   7   2    4.88    0.90
   4   7   3  254.63    5.07
   4   7   3  257.81    5.73
   4   7   3  281.36   10.55
  -4  -7  -3  259.12    9.85
   4   7   3  255.90    5.98
   4   7   3  257.56    6.07
   4   7   3  254.85    5.82
  -4  -7  -3  245.24    9.84
  -4  -7  -3  243.03   10.00
   4   7   3  261.66    5.78
   4   7   3  260.79    5.44
   4   7   3  258.58    5.86
   4   7   4    0.53    0.43
   4   7   4    0.52    0.51
   4   7   4   -0.04    0.48
   4   7   4    0.13    0.50
  -4  -7  -4    1.70    0.89
   4   7   4    1.00    0.55
   4   7   4   -0.11    0.42
  -4  -7  -4    0.74    1.09
   4   7   4    0.04    0.43
   4   7   5  213.09    4.84
   4   7   5  223.92    5.54
   4   7   5  232.39    5.82
   4   7   5  230.40    5.76
   4   7   5  218.90    5.58
   4   7   5  220.25    5.21
   4   7   6  122.40    3.71
   4   7   6  126.47    4.22
   4   7   6  130.65    4.35
   4   7   6  132.77    4.39
   4   7   6  122.96    4.25
   4   7   6  124.11    4.03
   4   7   6  127.55    3.92
   4   7   6  126.78    3.93
   4   7   7    0.82    0.71
   4   7   7    0.57    0.48
   4   7   7    0.38    0.50
   4   7   7    2.45    0.68
   4   7   7    1.32    0.45
   4   7   7    0.59    0.42
  -4  -7  -8   71.11    2.76
   4   7   8   68.95    2.96
   4   7   8   69.07    3.14
   4   7   8   68.55    3.08
   4   7   8   68.32    3.01
  -4  -7  -9    4.16    0.68
   4   7   9    4.55    0.77
   4   7   9    4.34    0.90
   4   7   9    4.49    0.88
   4   7   9    4.04    0.80
   4   7  10   65.16    2.20
  -4  -7 -10   62.02    2.32
   4   7  10   63.05    2.66
   4   7  10   62.37    2.58
   4   7  10   66.61    2.67
  -4  -7 -11    1.21    0.48
  -4  -7 -11    0.84    0.33
   4   7  11    1.49    0.56
  -4  -7 -11    1.11    0.44
   4   7  11    1.11    0.52
  -4  -7 -12   11.23    0.81
  -4  -7 -12   10.43    0.71
  -4  -7 -12   10.24    0.68
  -4  -8   5   36.99    1.45
  -4  -8   5   39.09    1.40
  -4  -8   5   39.33    1.50
   4   8  -5   40.33    1.64
  -4  -8   5   39.60    1.52
   4   8  -5   38.82    1.37
   4   8  -5   37.91    1.33
   4   8  -5   37.67    1.59
  -4  -8   4   32.42    1.64
  -4  -8   4   32.13    1.49
  -4  -8   4   30.91    1.46
  -4  -8   4   31.01    1.56
   4   8  -4   32.38    1.58
   4   8  -4   32.99    1.57
   4   8  -4   31.99    1.73
  -4  -8   4   32.40    1.60
   4   8  -4   33.12    1.63
   4   8  -4   32.87    1.56
   4   8  -4   32.26    1.73
  -4  -8   3    2.12    0.65
  -4  -8   3    1.42    0.46
  -4  -8   3    3.66    0.86
  -4  -8   3    0.90    0.46
   4   8  -3    1.55    0.56
   4   8  -3    1.93    0.59
   4   8  -3    1.30    0.60
  -4  -8   3    1.14    0.49
   4   8  -3    1.35    0.50
   4   8  -3    1.86    0.66
  -4  -8   2  122.77    3.64
  -4  -8   2  124.33    3.44
   4   8  -2  119.09    3.78
   4   8  -2  118.85    3.79
   4   8  -2  123.81    3.89
  -4  -8   2  124.54    3.50
   4   8  -2  127.25    3.66
   4   8  -2  124.66    3.86
  -4  -8   1    4.91    0.85
  -4  -8   1    3.87    0.70
   4   8  -1    3.83    0.86
   4   8  -1    5.03    0.94
  -4  -8   1    3.59    0.68
   4   8  -1    5.62    0.92
   4   8  -1    4.14    0.85
  -4  -8   0  125.90    3.79
   4   8   0  124.61    4.14
   4   8   0  123.93    4.21
   4   8   0  123.09    4.11
  -4  -8   0  132.55    3.60
   4   8   0  122.33    4.09
   4   8   0  125.09    3.87
   4   8   0  120.77    4.00
  -4  -8  -1  609.90    8.19
   4   8   1  589.86    9.13
   4   8   1  605.39    9.36
   4   8   1  610.32    9.05
   4   8   1  612.88    8.61
   4   8   1  603.65    8.92
  -4  -8  -2   27.22    1.71
   4   8   2   27.60    1.85
   4   8   2   27.92    2.06
   4   8   2   26.42    2.04
   4   8   2   26.39    1.84
   4   8   2   27.60    1.94
   4   8   2   28.55    1.89
   4   8   2   29.67    2.03
  -4  -8  -3  291.01    5.56
   4   8   3  285.54    6.04
   4   8   3  274.83    6.32
   4   8   3  284.96    6.50
   4   8   3  291.79    6.49
   4   8   3  281.50    6.15
   4   8   3  287.72    6.09
   4   8   3  286.51    5.86
   4   8   4   64.54    2.98
   4   8   4   68.31    3.17
   4   8   4   75.30    3.33
   4   8   4   65.10    3.14
   4   8   4   66.46    3.07
   4   8   4   64.87    2.88
  -4  -8  -5    0.74    0.40
   4   8   5    0.37    0.51
   4   8   5    0.20    0.50
   4   8   5    0.36    0.52
   4   8   5    0.32    0.47
   4   8   5    1.66    0.63
   4   8   6   42.58    2.43
   4   8   6   42.30    2.45
   4   8   6   42.50    2.46
   4   8   6   41.00    2.44
   4   8   6   39.95    2.11
  -4  -8  -7  185.59    4.23
   4   8   7  178.01    4.83
   4   8   7  184.18    4.89
   4   8   7  185.08    4.97
   4   8   7  171.24    4.47
   4   8   7  179.82    4.13
   4   8   7  176.78    4.39
  -4  -8  -8   91.23    2.97
   4   8   8   88.82    3.14
   4   8   8   89.67    3.33
   4   8   8   85.09    3.11
   4   8   8   85.56    3.01
  -4  -8  -9    1.17    0.43
   4   8   9    1.23    0.49
   4   8   9    0.49    0.49
  -4  -8  -9    0.59    0.49
   4   8   9    0.79    0.51
   4   8   9    1.92    0.60
  -4  -8 -10   55.68    1.99
   4   8  10   54.30    2.15
   4   8  10   50.79    2.01
   4   8  10   51.99    2.08
  -4  -8 -11    1.21    0.42
  -4  -8 -11    0.94    0.29
   4   8  11    0.96    0.44
  -4  -8 -11    0.65    0.37
   4   8  11    0.86    0.40
  -4  -9   3   24.63    1.22
  -4  -9   3   24.82    1.14
  -4  -9   3   21.92    0.99
  -4  -9   3   24.60    1.08
   4   9  -3   22.89    1.17
   4   9  -3   24.15    1.20
  -4  -9   3   24.71    1.13
   4   9  -3   24.80    1.25
   4   9  -3   24.40    1.21
  -4  -9   2  318.55    4.80
  -4  -9   2  331.37    4.78
  -4  -9   2  323.77    4.24
   4   9  -2  329.50    5.07
   4   9  -2  326.77    5.10
  -4  -9   2  332.28    4.51
   4   9  -2  325.89    5.09
   4   9  -2  334.08    4.80
   4   9  -2  327.44    4.98
  -4  -9   1   64.24    2.32
  -4  -9   1   62.21    2.31
  -4  -9   1   63.12    1.95
   4   9  -1   63.64    2.50
   4   9  -1   63.76    2.54
  -4  -9   1   63.39    2.11
   4   9  -1   64.74    2.51
   4   9  -1   63.86    2.34
   4   9  -1   61.53    2.35
  -4  -9   0    3.69    0.66
  -4  -9   0    3.35    0.70
   4   9   0    4.52    0.86
   4   9   0    3.25    0.75
  -4  -9   0    3.43    0.57
   4   9   0    3.37    0.77
   4   9   0    3.62    0.75
   4   9   0    3.54    0.73
  -4  -9  -1  135.90    3.45
  -4  -9  -1  132.45    3.60
   4   9   1  134.27    4.00
   4   9   1  132.73    4.04
   4   9   1  131.21    3.73
   4   9   1  131.90    3.83
   4   9   1  136.42    3.75
   4   9   1  136.66    3.77
  -4  -9  -2    3.60    0.62
  -4  -9  -2    2.46    0.62
   4   9   2    3.30    0.69
   4   9   2    3.08    0.75
   4   9   2    2.97    0.78
   4   9   2    2.78    0.74
   4   9   2    2.33    0.57
   4   9   2    5.01    0.86
  -4  -9  -3   16.69    1.27
  -4  -9  -3   18.40    1.43
   4   9   3   17.60    1.42
   4   9   3   19.46    1.65
   4   9   3   19.10    1.64
   4   9   3   19.61    1.62
   4   9   3   18.76    1.47
  -4  -9  -4  188.89    3.90
  -4  -9  -4  191.07    4.33
   4   9   4  183.94    4.53
   4   9   4  194.18    4.94
   4   9   4  197.45    4.99
   4   9   4  183.23    4.65
   4   9   4  181.06    4.34
  -4  -9  -5    8.97    1.03
  -4  -9  -5    9.04    0.96
   4   9   5    8.38    1.06
   4   9   5    9.72    1.17
   4   9   5   11.07    1.28
   4   9   5    9.08    1.12
   4   9   5    9.76    1.03
  -4  -9  -6  213.28    4.43
  -4  -9  -6  219.55    4.07
   4   9   6  205.28    4.77
   4   9   6  218.91    5.03
   4   9   6  214.28    4.95
   4   9   6  209.54    4.11
  -4  -9  -7   75.70    2.42
  -4  -9  -7   74.95    2.61
   4   9   7   72.30    2.75
   4   9   7   75.02    2.79
   4   9   7   72.36    2.80
  -4  -9  -8   47.25    1.66
  -4  -9  -8   48.03    1.92
   4   9   8   51.41    2.08
   4   9   8   49.11    2.18
  -4  -9  -8   50.57    2.06
   4   9   8   50.56    1.92
   4   9   8   45.76    1.75
  -4  -9  -9  188.75    3.21
   4   9   9  184.70    3.19
  -4  -9  -9  186.22    3.50
   4   9   9  182.24    3.31
  -4  -9 -10    7.44    0.63
   4   9  10    6.38    0.60
  -4  -9 -10    6.18    0.66
   4   9  10    6.12    0.61
  -4 -10   1   44.59    1.28
  -4 -10   1   48.38    1.41
  -4 -10   1   43.51    1.25
   4  10  -1   46.61    1.47
   4  10  -1   47.22    1.49
   4  10  -1   48.51    1.50
  -4 -10   0   70.87    1.78
  -4 -10   0   72.86    1.97
  -4 -10   0   72.99    1.95
   4  10   0   74.11    2.17
   4  10   0   73.97    2.19
   4  10   0   73.39    2.08
  -4 -10  -1  189.55    2.96
  -4 -10  -1  195.34    3.16
  -4 -10  -1  204.50    3.45
  -4 -10  -1  197.70    3.50
   4  10   1  204.04    3.89
   4  10   1  198.56    3.89
   4  10   1  202.65    3.65
  -4 -10  -2    5.33    0.69
  -4 -10  -2    6.02    0.66
  -4 -10  -2    4.93    0.68
   4  10   2    5.41    0.77
   4  10   2    4.59    0.73
   4  10   2    7.20    0.78
   4  10   2    5.56    0.70
  -4 -10  -3   67.72    2.18
  -4 -10  -3   65.81    1.93
  -4 -10  -3   64.77    2.14
   4  10   3   61.84    2.00
   4  10   3   67.30    2.41
   4  10   3   66.68    2.34
   4  10   3   65.81    2.10
   4  10   3   67.05    2.15
  -4 -10  -4   27.14    1.42
  -4 -10  -4   27.56    1.39
   4  10   4   23.63    1.34
   4  10   4   26.80    1.54
   4  10   4   27.11    1.56
   4  10   4   26.26    1.44
   4  10   4   26.92    1.31
  -4 -10  -5   11.50    0.94
  -4 -10  -5   11.27    0.86
   4  10   5   10.57    0.95
   4  10   5   11.72    1.06
   4  10   5   11.91    1.03
   4  10   5   10.77    0.78
  -4 -10  -6   86.86    2.29
  -4 -10  -6   86.38    2.39
  -4 -10  -6   78.03    1.88
   4  10   6   81.72    2.39
   4  10   6   89.71    2.60
   4  10   6   83.15    2.48
  -4 -10  -6   80.55    2.18
  -4 -10  -7   64.35    1.75
  -4 -10  -7   67.01    1.95
   4  10   7   67.89    2.03
   4  10   7   65.15    2.07
  -4 -10  -7   64.12    1.85
  -4 -10  -8   11.76    0.74
   4  10   8   11.72    0.72
  -4 -10  -8   11.37    0.75
   5  -7  -4  178.28    2.58
   5  -7  -4  172.52    2.61
   5  -7  -3   59.31    1.60
   5  -7  -3   57.65    1.61
  -5   7   3   59.14    1.68
   5  -7  -3   57.22    1.42
  -5   7   3   58.09    1.60
   5  -7  -2  103.17    2.09
   5  -7  -2  100.52    2.09
  -5   7   2  100.13    2.15
   5  -7  -2   99.46    1.96
  -5   7   2  101.48    2.17
   5  -7  -1    3.60    0.45
   5  -7  -1    4.09    0.46
  -5   7   1    3.09    0.46
   5  -7  -1    4.20    0.46
  -5   7   1    4.83    0.54
  -5   6   7    9.63    0.79
   5  -6  -7    8.84    0.72
   5  -6  -7    8.55    0.72
  -5   6   7    7.98    0.59
  -5   6   7    8.61    0.70
  -5   6   6   57.18    2.03
   5  -6  -6   54.33    1.78
   5  -6  -6   57.01    1.87
  -5   6   6   48.05    1.46
  -5   6   6   53.64    1.79
   5  -6  -6   49.25    1.58
   5  -6  -5   14.44    1.03
  -5   6   5   15.83    1.20
   5  -6  -5   15.83    1.05
   5  -6  -5   15.23    1.10
   5  -6  -5   15.28    1.06
  -5   6   5   15.97    1.16
  -5   6   5   11.31    0.84
   5  -6  -5   14.85    0.88
  -5   6   5   15.09    1.02
  -5   6   5   15.09    1.05
   5  -6  -4  149.57    3.40
  -5   6   4  148.11    3.61
   5  -6  -4  137.55    2.88
   5  -6  -4  148.23    3.47
   5  -6  -4  142.88    3.10
  -5   6   4  149.94    3.64
   5  -6  -4  145.11    3.07
  -5   6   4  143.31    3.35
   5  -6  -3   23.12    1.43
  -5   6   3   23.10    1.50
   5  -6  -3   23.74    1.48
   5  -6  -3   22.39    1.22
  -5   6   3   23.59    1.55
   5  -6  -3   19.84    1.38
   5  -6  -3   24.50    1.38
  -5   6   3   21.65    1.41
  -5   6   3   17.62    1.16
   5  -6  -2   44.10    1.97
  -5   6   2   41.28    2.00
   5  -6  -2   43.33    1.97
   5  -6  -2   37.99    1.67
  -5   6   2   43.15    2.07
   5  -6  -2   40.14    1.91
   5  -6  -2   46.27    1.92
  -5   6   2   43.33    2.02
   5  -6  -1   -0.03    0.40
   5  -6  -1    0.18    0.40
   5  -6  -1    0.81    0.40
  -5   6   1    0.20    0.32
  -5   6   1    0.33    0.46
   5  -6  -1   -0.31    0.46
   5  -6  -1   -0.10    0.46
  -5   6   1    0.28    0.44
   5  -6   0   46.35    1.85
   5  -6   0   46.29    1.86
   5  -6   0   45.02    1.94
   5  -6   0   44.38    1.84
  -5   6   0   44.85    1.86
  -5   6   0   46.17    2.02
   5  -6   0   44.17    1.82
   5  -6   0   46.61    1.86
  -5   6   0   47.55    2.10
   5  -6   1  293.61    4.05
   5  -6   1  289.40    4.13
   5  -6   1  296.18    4.71
  -5   6  -1  278.21    3.87
   5  -6   1  303.80    4.63
  -5   6  -1  308.15    4.73
  -5   6  -1  288.10    4.59
   5  -6   1  291.98    4.14
   5  -6   1  296.64    4.25
  -5   6  -1  308.27    4.99
   5  -6   2    3.15    0.56
  -5   6  -2    3.19    0.44
   5  -6   2    3.40    0.57
  -5   6  -2    3.27    0.55
  -5   6  -2    2.32    0.49
   5  -6   2    3.38    0.47
  -5   6  -2    3.04    0.59
   5  -6   3    5.52    0.59
   5  -6   3    6.20    0.61
  -5   6  -3    6.49    0.65
  -5   6  -3    6.98    0.68
  -5   5   9   28.03    1.11
   5  -5  -9   26.00    1.05
   5  -5  -9   27.02    1.08
   5  -5  -9   24.32    1.01
  -5   5   9   29.16    1.19
  -5   5   8   56.34    1.98
   5  -5  -8   55.62    1.88
   5  -5  -8   56.15    1.94
   5  -5  -8   54.97    1.77
  -5   5   8   49.98    1.73
  -5   5   8   58.27    2.01
  -5   5   7    2.06    0.59
   5  -5  -7    2.13    0.57
   5  -5  -7    1.40    0.39
   5  -5  -7    2.42    0.59
   5  -5  -7    2.25    0.50
  -5   5   7    2.47    0.50
  -5   5   7    1.94    0.55
  -5   5   7    3.24    0.69
  -5   5   6    0.90    0.56
   5  -5  -6    1.45    0.51
   5  -5  -6    0.58    0.48
   5  -5  -6    0.22    0.36
   5  -5  -6    1.22    0.55
   5  -5  -6    0.91    0.41
  -5   5   6    0.56    0.41
  -5   5   6    1.54    0.63
   5  -5  -5  115.85    3.38
  -5   5   5  124.73    3.85
   5  -5  -5  121.58    3.42
   5  -5  -5  122.81    3.57
   5  -5  -5  121.29    3.48
   5  -5  -5  113.12    2.91
  -5   5   5  117.48    3.54
   5  -5  -5  118.84    3.05
  -5   5   5  123.09    3.38
  -5   5   5  118.52    3.58
   5  -5  -4   21.94    1.60
  -5   5   4   24.44    1.82
   5  -5  -4   21.39    1.47
   5  -5  -4   23.75    1.69
   5  -5  -4   23.86    1.59
  -5   5   4   25.87    1.80
   5  -5  -4   21.87    1.65
   5  -5  -4   22.82    1.49
  -5   5   4   22.92    1.58
  -5   5   4   21.20    1.59
   5  -5  -3  289.85    5.71
   5  -5  -3  276.51    5.03
   5  -5  -3  285.77    5.75
   5  -5  -3  272.36    5.16
   5  -5  -3  264.51    5.08
  -5   5   3  305.23    6.21
   5  -5  -3  274.69    5.66
   5  -5  -3  295.56    5.50
  -5   5   3  280.02    5.72
   5  -5  -2   53.84    2.51
   5  -5  -2   52.67    2.51
   5  -5  -2   49.30    2.11
   5  -5  -2   55.05    2.41
  -5   5   2   56.01    2.76
   5  -5  -2   52.94    2.51
  -5   5   2   53.23    2.61
   5  -5  -1   28.67    1.82
   5  -5  -1   28.48    1.84
   5  -5  -1   24.28    1.76
   5  -5  -1   27.19    1.75
  -5   5   1   26.07    1.69
  -5   5   1   25.44    1.90
   5  -5  -1   23.31    1.67
  -5   5   1   26.44    1.89
   5  -5   0    2.94    0.70
   5  -5   0    3.79    0.81
   5  -5   0    4.67    0.80
   5  -5   0    4.05    0.74
  -5   5   0    3.20    0.71
   5  -5   0    3.05    0.73
   5  -5   0    2.22    0.65
  -5   5   0    2.92    0.81
   5  -5   1  126.94    3.44
   5  -5   1  124.74    3.45
   5  -5   1  128.07    3.84
  -5   5  -1  123.48    3.41
   5  -5   1  130.98    3.77
  -5   5  -1  121.52    3.69
   5  -5   1  125.78    3.45
   5  -5   1  123.78    3.64
  -5   5  -1  127.80    3.99
   5  -5   2   13.59    1.04
   5  -5   2   13.49    1.07
   5  -5   2   12.49    1.21
  -5   5  -2   13.43    1.16
   5  -5   2   13.27    1.22
   5  -5   2   12.40    0.97
  -5   5  -2   12.58    1.25
   5  -5   2   12.72    1.03
   5  -5   2   12.15    1.05
   5  -5   2   13.61    1.22
  -5   5  -2   12.86    1.32
   5  -5   3   24.63    1.54
  -5   5  -3   25.18    1.50
   5  -5   3   25.14    1.53
   5  -5   3   24.13    1.31
  -5   5  -3   24.53    1.61
   5  -5   3   23.99    1.25
   5  -5   3   23.70    1.51
  -5   5  -3   22.81    1.59
   5  -5   4  179.51    3.65
  -5   5  -4  176.94    3.61
   5  -5   4  178.27    3.58
   5  -5   4  173.42    3.20
  -5   5  -4  182.30    3.90
   5  -5   4  180.36    3.68
  -5   5  -4  181.47    3.88
   5  -5   5   34.03    1.33
  -5   5  -5   36.66    1.45
   5  -5   5   35.09    1.34
   5  -5   5   35.18    1.27
  -5   5  -5   38.23    1.56
   5  -5   5   38.85    1.49
  -5   5  -5   36.61    1.50
   5  -4 -10    7.82    0.60
   5  -4 -10    7.41    0.61
  -5   4  10    7.54    0.63
  -5   4  10    8.90    0.67
  -5   4   9   12.87    0.95
   5  -4  -9   11.79    0.90
   5  -4  -9   12.61    0.93
   5  -4  -9   11.59    0.94
   5  -4  -9   11.56    0.92
  -5   4   9    9.13    0.71
   5  -4  -9   10.70    0.83
  -5   4   9   11.88    0.99
  -5   4   9   12.80    1.02
  -5   4   8   83.19    2.76
   5  -4  -8   79.04    2.61
   5  -4  -8   81.62    2.50
   5  -4  -8   80.67    2.71
   5  -4  -8   77.80    2.57
  -5   4   8   73.90    2.35
   5  -4  -8   78.90    2.33
  -5   4   8   82.14    2.75
  -5   4   8   82.22    2.81
  -5   4   7   59.49    2.59
   5  -4  -7   57.77    2.46
   5  -4  -7   58.65    2.27
   5  -4  -7   59.18    2.54
  -5   4   7   54.33    2.26
   5  -4  -7   57.88    2.12
  -5   4   7   61.35    2.63
  -5   4   7   57.57    2.60
   5  -4  -7   53.30    2.09
  -5   4   6    3.56    0.81
   5  -4  -6    2.88    0.69
   5  -4  -6    3.59    0.75
   5  -4  -6    2.60    0.60
   5  -4  -6    2.56    0.70
  -5   4   6    2.51    0.61
  -5   4   6    3.09    0.78
  -5   4   5    0.91    0.66
   5  -4  -5    1.24    0.57
   5  -4  -5    0.90    0.49
   5  -4  -5    0.69    0.47
   5  -4  -5    0.84    0.54
   5  -4  -5    1.17    0.53
  -5   4   5    0.97    0.53
   5  -4  -5    1.11    0.48
  -5   4   5    0.54    0.54
   5  -4  -4   45.51    2.40
   5  -4  -4   48.87    2.41
   5  -4  -4   49.65    2.56
   5  -4  -4   47.94    2.42
   5  -4  -4   43.55    2.13
  -5   4   4   46.63    2.53
   5  -4  -4   43.07    2.45
   5  -4  -4   47.66    2.28
  -5   4   4   46.89    2.36
   5  -4  -3    1.92    0.73
   5  -4  -3    2.44    0.64
   5  -4  -3    2.33    0.73
   5  -4  -3    1.80    0.63
   5  -4  -3    1.47    0.51
  -5   4   3    2.08    0.73
   5  -4  -3    1.75    0.69
   5  -4  -3    3.74    0.79
  -5   4   3    2.00    0.65
   5  -4  -2  518.76    8.16
   5  -4  -2  517.94    7.30
   5  -4  -2  534.75    8.32
   5  -4  -2  501.98    8.22
   5  -4  -2  517.85    7.46
   5  -4  -2  509.20    7.93
   5  -4  -2  518.69    8.24
  -5   4   2  543.80    8.48
   5  -4  -1   10.39    1.22
   5  -4  -1   12.84    1.34
   5  -4  -1   11.96    1.34
   5  -4  -1    9.98    1.18
  -5   4   1   10.98    1.16
   5  -4  -1   10.59    1.22
   5  -4  -1   12.35    1.23
  -5   4   1   11.57    1.32
   5  -4   0   11.70    1.23
   5  -4   0   12.51    1.31
   5  -4   0   11.63    1.35
   5  -4   0   11.93    1.27
  -5   4   0   11.18    1.23
   5  -4   0   10.86    1.19
   5  -4   0   11.26    1.20
   5  -4   1   46.38    2.37
   5  -4   1   49.10    2.37
   5  -4   1   46.72    2.52
  -5   4  -1   46.62    2.31
   5  -4   1   49.14    2.55
   5  -4   1   49.48    2.21
  -5   4  -1   50.18    2.58
   5  -4   1   48.86    2.37
   5  -4   1   51.72    2.53
   5  -4   1   46.63    2.43
   5  -4   2  158.59    4.01
   5  -4   2  161.79    4.11
   5  -4   2  164.64    4.59
  -5   4  -2  163.41    4.38
   5  -4   2  171.32    4.62
   5  -4   2  164.49    4.12
  -5   4  -2  173.18    4.79
   5  -4   2  163.10    4.05
   5  -4   2  169.42    4.54
   5  -4   2  161.69    4.46
   5  -4   3  105.44    3.57
  -5   4  -3  103.86    3.51
   5  -4   3  100.53    3.46
   5  -4   3  103.44    3.27
  -5   4  -3  108.77    3.78
   5  -4   3   97.77    3.04
   5  -4   3  107.00    3.58
   5  -4   3  105.39    3.55
   5  -4   4  182.65    4.40
  -5   4  -4  180.50    4.49
   5  -4   4  178.89    4.32
   5  -4   4  176.31    4.16
  -5   4  -4  188.15    4.79
   5  -4   4  183.34    4.47
   5  -4   4  172.85    4.36
   5  -4   5  140.51    3.47
  -5   4  -5  149.42    3.84
   5  -4   5  148.09    3.53
   5  -4   5  145.31    3.54
  -5   4  -5  150.00    3.40
  -5   4  -5  151.18    4.01
   5  -4   5  148.43    3.78
   5  -4   5  142.23    3.71
   5  -4   6   68.66    2.03
  -5   4  -6   76.02    2.47
   5  -4   6   76.01    2.12
   5  -4   6   75.45    2.30
  -5   4  -6   72.93    2.14
  -5   4  -6   73.18    2.48
   5  -4   6   76.09    2.39
   5  -4   6   73.95    2.40
  -5   4  -7  111.53    2.46
   5  -4   7  111.21    2.26
  -5   4  -7  109.12    2.38
   5  -4   7  112.19    2.32
   5  -4   7  108.39    2.38
  -5   3  10   53.42    1.50
   5  -3 -10   56.80    1.57
   5  -3 -10   58.51    1.91
   5  -3 -10   60.95    1.83
  -5   3  10   56.01    1.76
   5  -3 -10   59.15    1.85
  -5   3  10   62.61    2.02
  -5   3  10   60.84    1.87
  -5   3   9    5.11    0.70
   5  -3  -9    4.27    0.65
   5  -3  -9    4.72    0.72
   5  -3  -9    4.68    0.73
   5  -3  -9    4.14    0.68
  -5   3   9    4.73    0.73
   5  -3  -9    4.86    0.72
  -5   3   9    4.88    0.79
  -5   3   9    5.24    0.76
  -5   3   8   33.54    1.88
   5  -3  -8   34.08    1.88
   5  -3  -8   34.81    1.90
   5  -3  -8   32.15    1.89
  -5   3   8   37.37    2.00
   5  -3  -8   32.90    1.80
  -5   3   8   37.75    2.10
  -5   3   8   33.79    1.95
  -5   3   7   82.82    3.16
   5  -3  -7   84.29    3.16
   5  -3  -7   79.33    2.98
   5  -3  -7   78.82    3.13
   5  -3  -7   80.05    2.89
  -5   3   7   82.09    3.23
   5  -3  -7   74.00    2.66
  -5   3   6   34.04    2.18
   5  -3  -6   31.10    2.02
   5  -3  -6   34.29    2.09
   5  -3  -6   32.70    1.93
   5  -3  -6   32.16    2.09
   5  -3  -6   33.34    1.89
  -5   3   6   36.17    2.25
   5  -3  -6   32.88    1.97
  -5   3   5    6.98    1.07
   5  -3  -5    6.44    1.00
   5  -3  -5    6.59    1.02
   5  -3  -5    5.40    0.89
   5  -3  -5    6.08    0.96
  -5   3   5    5.93    0.88
   5  -3  -5    6.58    0.86
   5  -3  -4    3.13    0.72
   5  -3  -4    3.00    0.69
   5  -3  -4    1.94    0.65
  -5   3   4    1.90    0.64
   5  -3  -4    1.38    0.65
   5  -3  -4    2.14    0.59
   5  -3  -3  125.72    4.02
   5  -3  -3  131.28    3.93
   5  -3  -3  131.18    4.15
   5  -3  -3  125.86    3.93
   5  -3  -3  120.94    3.64
   5  -3  -3  125.61    3.93
   5  -3  -3  124.22    4.07
  -5   3   3  119.24    6.47
   5  -3  -3  129.97    3.90
   5  -3  -2  248.88    5.63
   5  -3  -2  248.54    5.22
   5  -3  -2  256.25    5.73
   5  -3  -2  237.39    5.60
   5  -3  -2  244.08    5.23
   5  -3  -2  254.00    9.35
   5  -3  -2  244.12    5.49
  -5   3   2  238.42    8.91
   5  -3  -2  246.39    5.61
  -5   3   2  237.45    9.53
  -5   3   2  246.57    5.56
   5  -3  -1  389.73    6.97
   5  -3  -1  379.29    6.91
   5  -3  -1  369.31    7.01
   5  -3  -1  389.66   11.18
   5  -3  -1  375.21    6.90
  -5   3   1  374.80   11.38
   5  -3  -1  386.26    6.87
  -5   3   1  364.02   11.71
   5  -3  -1  365.91    6.27
   5  -3   0  285.42    5.88
   5  -3   0  288.97    5.94
   5  -3   0  283.11    6.12
   5  -3   0  293.81    6.09
  -5   3   0  281.31   10.06
   5  -3   0  291.06    5.85
  -5   3   0  266.78    9.90
   5  -3   0  290.62    5.76
   5  -3   0  271.64    5.86
   5  -3   1    1.04    0.51
   5  -3   1    0.59    0.45
   5  -3   1    1.76    0.52
   5  -3   1    1.55    0.54
   5  -3   1    0.92    0.51
   5  -3   1    0.76    0.44
  -5   3  -1   -0.92    1.16
   5  -3   1    1.11    0.51
   5  -3   1    1.63    0.59
   5  -3   2    2.70    0.75
   5  -3   2    1.20    0.47
  -5   3  -2    1.41    0.54
   5  -3   2    1.31    0.50
   5  -3   2    1.00    0.49
   5  -3   2    1.46    0.58
   5  -3   2    1.80    0.65
   5  -3   3  271.11    5.92
  -5   3  -3  283.60    6.02
   5  -3   3  272.54    5.88
   5  -3   3  274.76    5.72
   5  -3   3  269.57    6.11
   5  -3   3  275.21    5.92
   5  -3   3  273.32    6.08
   5  -3   4   28.55    1.92
  -5   3  -4   35.51    2.21
   5  -3   4   29.00    1.91
   5  -3   4   29.65    1.93
  -5   3  -4   28.97    1.84
   5  -3   4   30.15    2.07
   5  -3   4   29.76    1.99
   5  -3   4   29.27    2.03
   5  -3   5  316.19    5.82
  -5   3  -5  300.14    6.25
   5  -3   5  312.69    5.79
   5  -3   5  313.33    5.98
  -5   3  -5  326.59    6.03
   5  -3   5  295.91    6.12
   5  -3   5  323.05    6.23
   5  -3   5  319.17    6.31
   5  -3   6   19.16    1.33
   5  -3   6   17.75    1.27
  -5   3  -6   16.84    1.50
   5  -3   6   15.60    1.32
  -5   3  -6   17.18    1.37
   5  -3   6   14.27    1.34
   5  -3   6   17.16    1.42
   5  -3   6   16.70    1.44
  -5   3  -7   22.21    1.51
   5  -3   7   21.69    1.38
  -5   3  -7   24.64    1.48
   5  -3   7   21.86    1.45
   5  -3   7   22.72    1.43
   5  -3   7   22.14    1.47
  -5   3  -8  136.96    3.04
   5  -3   8  131.97    2.68
  -5   3  -8  137.57    2.88
  -5   3  -8  130.59    2.83
   5  -3   8  133.72    2.78
   5  -3   8  136.35    2.92
   5  -2 -11   11.21    0.74
  -5   2  11    9.56    0.67
   5  -2 -11   10.58    0.72
  -5   2  11   11.21    0.75
   5  -2 -10   27.16    1.16
   5  -2 -10   28.78    1.51
   5  -2 -10   29.52    1.35
  -5   2  10   30.27    1.54
  -5   2  10   29.48    1.36
   5  -2 -10   29.30    1.48
  -5   2  10   31.82    1.61
  -5   2  10   29.22    1.34
   5  -2  -9   37.56    1.80
   5  -2  -9   39.44    2.02
   5  -2  -9   37.38    1.88
   5  -2  -9   38.83    1.90
  -5   2   9   39.99    2.06
   5  -2  -9   39.44    1.99
  -5   2   9   38.12    2.03
  -5   2   9   37.84    1.88
  -5   2   8   11.58    1.14
   5  -2  -8   12.20    1.21
   5  -2  -8   13.89    1.34
   5  -2  -8   14.50    1.35
  -5   2   8   14.64    1.44
   5  -2  -8   12.62    1.28
  -5   2   8   12.18    1.31
  -5   2   8   11.53    1.23
  -5   2   7   22.49    1.68
   5  -2  -7   21.30    1.67
   5  -2  -7   22.93    1.75
   5  -2  -7   22.66    1.77
   5  -2  -7   22.36    1.69
  -5   2   7   23.04    1.83
  -5   2   7   22.16    1.74
  -5   2   6  697.03    9.39
   5  -2  -6  685.09    9.38
   5  -2  -6  681.66    9.15
   5  -2  -6  696.35    9.60
   5  -2  -6  661.91    8.88
  -5   2   6  677.13    9.53
   5  -2  -6  664.12    8.74
   5  -2  -5  875.63   10.29
  -5   2   5  894.44   10.85
   5  -2  -5  911.02   10.73
   5  -2  -5  895.07   10.73
   5  -2  -5  901.07   10.25
   5  -2  -5  917.71   10.94
   5  -2  -5  896.33   10.03
   5  -2  -4  388.64    6.89
   5  -2  -4  409.09    7.04
   5  -2  -4  401.46    7.15
   5  -2  -4  407.16    7.13
   5  -2  -4  414.25   12.46
  -5   2   4  390.41   11.12
  -5   2   4  389.63   12.01
  -5   2   4  385.69   11.68
   5  -2  -4  403.88    6.47
   5  -2  -3  270.20    5.70
   5  -2  -3  270.66    5.57
   5  -2  -3  262.89    5.79
   5  -2  -3  260.62    5.53
   5  -2  -3  285.56   10.02
   5  -2  -3  252.51    5.50
  -5   2   3  263.82    9.08
   5  -2  -3  247.30    5.58
  -5   2   3  260.92    9.52
  -5   2   3  257.26    9.08
   5  -2  -3  268.80    5.40
   5  -2  -2  658.15    8.85
   5  -2  -2  667.22    8.86
   5  -2  -2  695.49   15.04
   5  -2  -2  618.83    8.55
  -5   2   2  642.80   14.11
  -5   2   2  623.87   14.45
  -5   2   2  641.02   13.67
   5  -2  -2  609.59    8.36
   5  -2  -1    9.70    1.81
  -5   2   1    8.60    1.69
  -5   2   1    5.45    1.40
   5  -2   0  494.15   11.89
   5  -2   0  463.65    7.37
  -5   2   0  465.87   12.13
   5  -2   1  587.71    8.40
   5  -2   1  572.80   12.23
   5  -2   1  577.29   12.76
   5  -2   1  562.00    8.20
   5  -2   1  567.18    7.67
  -5   2  -1  567.85   13.75
  -5   2  -1  541.10   12.88
   5  -2   1  568.09    8.37
   5  -2   2  302.30    6.04
   5  -2   2  298.49    9.82
   5  -2   2  309.82    6.16
   5  -2   2  299.09    5.77
   5  -2   2  297.85    6.20
  -5   2  -2  306.96   10.41
  -5   2  -2  287.99    9.43
   5  -2   2  305.27    5.94
   5  -2   2  304.31    6.24
   5  -2   3  578.56    8.40
   5  -2   3  567.11   14.21
   5  -2   3  585.21    8.44
   5  -2   3  589.26    8.40
   5  -2   3  578.63    8.73
  -5   2  -3  572.15   14.70
   5  -2   3  602.01    8.55
   5  -2   3  573.92    8.74
   5  -2   4  526.84    8.00
   5  -2   4  542.67    8.08
   5  -2   4  544.42    8.27
   5  -2   4  525.19    8.45
   5  -2   4  548.51    8.41
   5  -2   4  538.98    8.58
   5  -2   5  193.93    4.69
   5  -2   5  194.09    4.73
   5  -2   5  197.96    5.03
   5  -2   5  177.01    4.98
   5  -2   5  189.30    5.10
   5  -2   5  194.43    5.06
   5  -2   5  191.97    5.16
   5  -2   6   18.31    1.39
   5  -2   6   18.23    1.56
   5  -2   6   15.52    1.48
   5  -2   6   16.29    1.51
   5  -2   6   16.55    1.53
   5  -2   6   16.78    1.55
   5  -2   7  112.18    3.46
  -5   2  -7  114.25    3.28
  -5   2  -7  116.11    3.70
   5  -2   7  101.41    3.49
   5  -2   7  114.92    3.62
   5  -2   7  113.11    3.59
   5  -2   7  113.29    3.65
   5  -2   8   42.70    1.87
  -5   2  -8   45.84    1.90
  -5   2  -8   44.24    2.11
   5  -2   8   42.92    1.98
   5  -2   8   43.31    2.02
   5  -2   8   44.06    2.04
  -5   2  -9    8.21    0.88
   5  -2   9    8.84    0.73
  -5   2  -9    8.27    0.69
  -5   2  -9    9.75    0.88
   5  -2   9    7.93    0.76
   5  -2   9    9.46    0.82
   5  -2   9    8.35    0.80
   5  -1 -11   44.49    1.49
  -5   1  11   45.15    1.54
   5  -1 -11   43.43    1.44
  -5   1  11   44.75    1.48
   5  -1 -10   14.56    1.16
   5  -1 -10   12.09    0.85
  -5   1  10   15.03    1.19
  -5   1  10   12.73    1.02
   5  -1 -10   12.14    1.05
   5  -1 -10   13.33    0.96
  -5   1  10   13.78    1.12
   5  -1  -9   36.89    1.79
   5  -1  -9   37.32    2.05
   5  -1  -9   36.01    1.81
  -5   1   9   42.33    2.21
   5  -1  -9   37.36    2.05
   5  -1  -9   39.31    1.84
  -5   1   9   40.53    2.14
  -5   1   9   43.61    1.92
  -5   1   9   41.65    1.90
   5  -1  -8    4.02    0.80
   5  -1  -8    5.99    0.99
   5  -1  -8    4.17    0.80
   5  -1  -8    3.62    0.76
  -5   1   8    5.42    1.01
   5  -1  -8    5.05    0.90
  -5   1   8    5.38    0.92
  -5   1   8    5.36    0.85
   5  -1  -7  614.94    8.75
   5  -1  -7  611.21    8.93
   5  -1  -7  602.46    8.92
   5  -1  -7  614.76    8.96
  -5   1   7  659.08    9.41
  -5   1   7  682.29    9.08
   5  -1  -6   62.27    2.85
   5  -1  -6   63.59    2.86
   5  -1  -6   62.31    2.92
   5  -1  -6   60.22    2.80
  -5   1   6   63.12    2.82
   5  -1  -6   58.89    2.62
   5  -1  -5   23.65    1.78
   5  -1  -5   27.47    3.17
   5  -1  -5   22.53    1.67
   5  -1  -5   26.44    1.89
   5  -1  -5   30.22    3.36
   5  -1  -5   22.80    1.69
  -5   1   5   21.74    2.82
  -5   1   5   23.56    3.04
   5  -1  -5   23.80    1.70
   5  -1  -4   84.04    3.12
   5  -1  -4   86.84    3.21
   5  -1  -4   80.52    3.16
   5  -1  -4   80.63    5.16
   5  -1  -4   87.16    3.23
   5  -1  -4   96.57    5.75
  -5   1   4   86.80    5.40
  -5   1   4   79.29    5.24
   5  -1  -3   12.71    2.04
   5  -1  -3   14.83    2.21
  -5   1   3   12.75    2.04
  -5   1   3   12.26    1.99
   5  -1  -2  189.53    7.59
  -5   1   2  179.24    6.93
  -5   1   2  168.75    6.97
   5  -1  -1  283.89    8.92
  -5   1   1  259.03    8.53
  -5   1   1  252.94    7.82
  -5   1   1  270.13    8.51
   5  -1   0  143.74    6.20
   5  -1   0  139.94    5.65
  -5   1   0  136.13    6.23
  -5   1   0  137.46    5.92
   5  -1   1 1093.74   16.55
   5  -1   1 1082.00   16.71
  -5   1  -1 1080.79   16.38
   5  -1   2   16.47    2.02
   5  -1   2   12.11    1.89
  -5   1  -2   11.02    1.92
  -5   1  -2   12.44    1.79
   5  -1   3  659.94   14.69
  -5   1  -3  643.32   14.49
   5  -1   4 1139.47   20.17
   5  -1   4 1117.16   11.18
   5  -1   4 1115.47   11.63
   5  -1   4 1094.39   12.07
   5  -1   4 1094.57   11.69
  -5   1  -4 1105.87   19.67
   5  -1   4 1136.84   11.68
   5  -1   4 1148.86   12.16
   5  -1   5   16.01    1.35
   5  -1   5   16.83    1.50
   5  -1   5   13.05    1.42
   5  -1   5   13.32    2.27
   5  -1   5   14.63    1.43
  -5   1  -5   11.10    2.27
  -5   1  -5   14.47    2.53
   5  -1   5   13.39    1.35
   5  -1   5   15.13    1.46
   5  -1   6  207.53    5.09
   5  -1   6  200.41    5.35
   5  -1   6  193.32    5.05
   5  -1   6  205.06    5.22
   5  -1   6  201.61    5.21
   5  -1   7   10.59    1.18
  -5   1  -7   11.88    1.25
   5  -1   7   10.61    1.29
   5  -1   7   12.12    1.31
   5  -1   7   11.59    1.29
   5  -1   7   12.59    1.34
   5  -1   8  107.75    3.29
  -5   1  -8  111.17    3.42
   5  -1   8  111.19    3.72
   5  -1   8  108.42    3.38
   5  -1   8  108.22    3.53
   5  -1   8  104.17    3.42
   5  -1   9   30.41    1.50
  -5   1  -9   34.02    1.73
  -5   1  -9   33.56    1.88
   5  -1   9   29.80    1.76
   5  -1   9   31.17    1.60
   5  -1   9   32.44    1.74
   5  -1   9   32.23    1.67
  -5   1 -10    0.39    0.27
  -5   1 -10    0.43    0.41
   5  -1  10    0.63    0.33
   5  -1  10    0.78    0.36
   5   0 -11    1.63    0.39
   5   0 -11    1.28    0.36
  -5   0  11    1.87    0.42
  -5   0  11    1.84    0.42
   5   0 -11    1.51    0.35
   5   0 -11    1.63    0.37
  -5   0  11    1.79    0.35
   5   0 -10  126.58    3.24
   5   0 -10  126.45    2.91
  -5   0  10  126.96    3.26
  -5   0  10  125.69    3.17
   5   0 -10  127.85    3.18
   5   0 -10  121.58    2.96
  -5   0  10  125.80    3.12
  -5   0  10  115.57    2.67
   5   0  -9   10.76    1.16
   5   0  -9    9.89    1.01
  -5   0   9   10.35    1.17
  -5   0   9   10.66    1.18
   5   0  -9    9.38    1.07
   5   0  -9   10.13    1.04
  -5   0   9   10.03    1.10
   5   0  -8   72.03    2.79
   5   0  -8   77.90    3.21
   5   0  -8   71.02    2.79
   5   0  -8   70.94    2.71
  -5   0   8   74.24    3.15
   5   0  -8   69.21    3.02
   5   0  -8   72.36    2.88
  -5   0   8   72.77    3.00
   5   0  -7   49.75    2.48
   5   0  -7   51.56    2.68
   5   0  -7   48.06    2.54
   5   0  -7   54.52    2.50
   5   0  -7   47.96    2.38
   5   0  -7   51.67    2.68
   5   0  -7   55.16    2.56
  -5   0   7   54.44    2.69
   5   0  -6 1324.87   12.85
   5   0  -6 1361.70   13.36
   5   0  -6 1335.36   13.25
   5   0  -6 1361.39   12.67
   5   0  -6 1339.37   13.25
   5   0  -5   98.57    3.48
   5   0  -5   94.24    5.69
   5   0  -5   96.25    3.45
   5   0  -5   98.11    3.53
  -5   0   5   98.01    5.54
   5   0  -5  103.02    5.85
   5   0  -5   99.26    3.49
  -5   0   5  100.84    5.92
   5   0  -5   94.95    3.32
   5   0  -4  429.88   11.45
   5   0  -4  448.11   11.90
  -5   0   4  441.29   11.83
   5   0  -3   98.94    5.18
   5   0  -3  106.31    5.63
  -5   0   3   98.51    5.28
   5   0  -2  151.10    6.10
   5   0  -2  167.41    6.80
  -5   0   2  160.52    6.36
   5   0  -1  235.53    7.30
   5   0  -1  253.43    8.11
   5   0  -1  239.09    6.83
  -5   0   1  244.48    7.42
  -5   0   1  246.70    7.47
   5   0   0  345.30    8.65
  -5   0   0  367.53    8.51
  -5   0   0  364.99    8.68
   5   0   1  174.44    6.40
   5   0   1  161.30    6.35
  -5   0  -1  174.81    6.63
  -5   0  -1  165.79    5.72
   5   0   2  226.05    7.17
   5   0   2  231.19    7.87
  -5   0  -2  219.78    7.60
   5   0   3  158.70    5.92
   5   0   3  163.95    6.99
  -5   0  -3  160.48    6.67
   5   0   4    2.43    1.02
  -5   0  -4    1.49    0.92
   5   0   5  265.36    9.84
   5   0   5  272.61    5.63
   5   0   5  277.97    5.95
  -5   0  -5  264.72   10.11
   5   0   5  266.15    5.90
   5   0   5  269.22    5.51
   5   0   5  265.48    5.57
  -5   0  -5  259.29    9.18
   5   0   5  252.29    5.72
   5   0   5  268.94    5.72
   5   0   5  275.14    5.79
   5   0   6   54.02    4.61
   5   0   6   55.09    2.61
   5   0   6   58.72    2.80
  -5   0  -6   51.60    4.73
   5   0   6   55.22    2.80
   5   0   6   57.99    2.67
   5   0   6   57.15    2.61
  -5   0  -6   55.91    4.51
   5   0   6   52.57    2.72
  -5   0  -6   55.94    4.88
   5   0   6   55.10    2.69
   5   0   6   55.89    2.68
   5   0   7  179.44    4.61
   5   0   7  181.77    5.10
   5   0   7  180.41    4.66
   5   0   7  182.95    4.62
   5   0   7  168.70    4.91
   5   0   7  181.84    4.94
   5   0   7  175.35    4.73
   5   0   8   93.16    3.12
   5   0   8   88.96    3.52
   5   0   8   94.27    3.18
   5   0   8   91.36    3.17
   5   0   8   87.62    3.47
   5   0   8   91.67    3.44
   5   0   8   89.37    3.22
  -5   0  -8   92.28    3.13
   5   0   9  401.61    5.69
   5   0   9  408.21    6.97
   5   0   9  401.13    5.92
   5   0   9  388.55    5.82
   5   0   9  413.42    6.76
   5   0   9  409.48    6.14
  -5   0  -9  418.26    6.20
  -5   0 -10    0.55    0.41
   5   0  10    0.12    0.45
   5   0  10    0.44    0.41
  -5   0 -10    0.79    0.39
  -5   0 -11   18.99    1.02
  -5   0 -11   19.93    1.11
   5   0  11   18.82    0.97
   5   1 -11   12.85    0.77
   5   1 -11   13.81    0.75
  -5  -1  11   15.20    0.78
  -5  -1  11   14.99    0.84
   5   1 -11   13.92    0.78
   5   1 -11   12.98    0.74
  -5  -1  10    2.33    0.49
   5   1 -10    3.06    0.59
   5   1 -10    2.80    0.62
  -5  -1  10    2.63    0.56
  -5  -1  10    2.85    0.63
   5   1 -10    2.56    0.52
   5   1 -10    2.64    0.59
  -5  -1  10    3.23    0.53
  -5  -1  10    1.95    0.50
   5   1  -9  168.79    4.25
   5   1  -9  171.22    4.14
  -5  -1   9  167.16    4.18
  -5  -1   9  166.99    4.22
   5   1  -9  171.59    4.20
   5   1  -9  174.27    4.23
  -5  -1   9  167.88    3.96
  -5  -1   9  173.89    4.12
   5   1  -8    4.45    0.92
   5   1  -8    3.75    0.78
  -5  -1   8    3.86    0.85
  -5  -1   8    3.72    0.84
   5   1  -8    4.79    0.93
   5   1  -8    3.84    0.76
  -5  -1   8    3.72    0.77
   5   1  -7    1.88    0.59
   5   1  -7    1.13    0.68
   5   1  -7    0.73    0.44
   5   1  -7    0.84    0.49
  -5  -1   7    1.33    0.59
   5   1  -7    2.07    0.68
   5   1  -7    1.73    0.63
  -5  -1   7    1.93    0.61
   5   1  -6   72.81    2.99
   5   1  -6   73.92    3.20
   5   1  -6   73.35    3.12
   5   1  -6   76.88    3.08
   5   1  -6   73.35    2.86
   5   1  -6   72.02    3.12
   5   1  -6   77.64    3.11
  -5  -1   6   70.02    5.04
  -5  -1   6   78.78    3.09
  -5  -1   6   65.16    5.01
   5   1  -5    1.47    0.51
  -5  -1   5    1.22    0.97
   5   1  -5    0.18    0.41
   5   1  -5    2.05    0.93
   5   1  -5    0.80    0.50
   5   1  -5    3.11    0.65
   5   1  -5    4.43    1.16
   5   1  -5    0.59    0.47
   5   1  -5    0.35    0.41
  -5  -1   5    2.43    1.12
   5   1  -4   -0.09    0.69
   5   1  -4    1.15    0.75
  -5  -1   4   -0.68    0.74
  -5  -1   4    0.17    0.53
   5   1  -3  510.10   11.41
   5   1  -3  530.11   11.99
  -5  -1   3  489.60   10.84
  -5  -1   3  502.06   11.85
   5   1  -2    1.66    0.74
   5   1  -2   -0.01    0.53
   5   1  -2    0.78    0.64
  -5  -1   2    0.52    0.47
  -5  -1   2    0.05    0.59
   5   1  -1  163.41    5.66
   5   1  -1  162.64    6.34
   5   1  -1  170.36    5.94
   5   1  -1  157.77    5.67
  -5  -1   1  162.17    6.03
  -5  -1   1  160.11    5.65
   5   1   0 1988.02   18.29
   5   1   0 2033.70   21.82
   5   1   0 2050.94   21.27
   5   1   0 2010.39   20.76
  -5  -1   0 2060.90   20.24
  -5  -1   0 2038.73   18.77
   5   1   1   49.88    3.40
   5   1   1   48.03    3.42
   5   1   1   50.11    3.42
  -5  -1  -1   47.18    2.94
   5   1   2   16.82    1.98
   5   1   2   14.08    1.94
  -5  -1  -2   18.67    2.09
   5   1   3  151.47    5.82
   5   1   3  152.04    6.53
  -5  -1  -3  153.98    6.04
   5   1   4  128.57    5.39
   5   1   4  121.70    6.11
  -5  -1  -4  120.60    6.03
  -5  -1  -4  124.43    5.58
   5   1   5   33.35    3.46
  -5  -1  -5   30.80    3.32
  -5  -1  -5   29.94    2.87
   5   1   6  159.03    7.64
   5   1   6  154.41    4.14
   5   1   6  155.44    4.45
  -5  -1  -6  154.74    7.82
   5   1   6  150.62    4.45
   5   1   6  156.12    4.37
   5   1   6  161.14    4.53
   5   1   6  147.88    4.37
  -5  -1  -6  152.27    7.77
   5   1   6  158.74    4.45
   5   1   6  152.22    4.22
   5   1   6  145.25    4.48
   5   1   7   10.69    1.13
   5   1   7   11.43    1.30
   5   1   7   17.36    1.58
   5   1   7   10.62    1.22
   5   1   7   15.59    1.51
   5   1   7   10.32    1.24
   5   1   7   11.11    1.34
   5   1   8  597.76    7.73
   5   1   8  583.96    8.57
   5   1   8  585.89    8.97
   5   1   8  597.21    8.65
   5   1   8  565.06    8.74
   5   1   8  608.40    9.04
   5   1   8  567.57    9.04
   5   1   9   11.93    1.30
   5   1   9   12.22    1.25
   5   1   9   10.79    1.24
   5   1   9   11.68    1.29
   5   1  10   45.75    2.24
   5   1  10   43.29    1.98
   5   1  10   40.86    2.08
   5   1  10   45.16    2.17
  -5  -1 -10   47.24    2.12
  -5  -1 -11    2.09    0.54
   5   1  11    1.66    0.53
   5   1  11    1.81    0.40
   5   1  11    2.81    0.53
  -5  -1 -11    2.39    0.50
  -5  -2  10    0.52    0.36
   5   2 -10    0.56    0.41
   5   2 -10    0.92    0.46
  -5  -2  10    1.30    0.40
  -5  -2  10    0.73    0.45
   5   2 -10    1.06    0.35
   5   2 -10    0.06    0.40
  -5  -2  10   -0.42    0.49
   5   2 -10    0.39    0.37
   5   2  -9    8.11    0.99
   5   2  -9    9.31    1.05
  -5  -2   9    8.46    0.93
  -5  -2   9    8.64    1.04
   5   2  -9    8.83    0.95
   5   2  -9    9.84    1.09
  -5  -2   9   10.23    1.13
   5   2  -8    0.58    0.51
   5   2  -8    0.40    0.48
  -5  -2   8   -0.11    0.45
  -5  -2   8    0.71    0.57
   5   2  -8    0.55    0.44
   5   2  -8    0.20    0.50
   5   2  -7   15.80    1.54
   5   2  -7   15.54    1.49
  -5  -2   7   14.45    1.40
  -5  -2   7   17.32    1.55
   5   2  -7   14.23    1.43
   5   2  -7   16.09    1.51
   5   2  -6  152.65    4.24
   5   2  -6  153.01    4.59
   5   2  -6  170.17    4.71
  -5  -2   6  171.01    4.62
   5   2  -6  167.07    4.70
   5   2  -6  159.78    4.57
   5   2  -5   13.51    1.31
   5   2  -5   18.00    2.57
   5   2  -5   13.95    1.42
   5   2  -5   14.51    1.36
   5   2  -5   15.88    1.49
  -5  -2   5   15.72    2.52
   5   2  -5   14.08    1.35
  -5  -2   5   17.04    2.45
   5   2  -4  283.98    9.13
   5   2  -4  295.00    8.68
  -5  -2   4  283.19    9.43
  -5  -2   4  294.28    9.62
   5   2  -3  160.28    6.38
   5   2  -3  168.99    6.50
  -5  -2   3  153.48    6.45
  -5  -2   3  145.89    6.50
   5   2  -2   41.99    3.00
   5   2  -2   38.72    3.12
  -5  -2   2   37.57    2.99
   5   2  -2   43.64    2.99
  -5  -2   2   47.45    3.50
   5   2  -1  312.09    7.36
  -5  -2   1  296.92    7.58
   5   2  -1  296.82    8.34
   5   2  -1  309.38    8.05
  -5  -2   1  300.54    8.29
  -5  -2   0   25.46    2.07
   5   2   0   28.42    2.04
   5   2   0   31.03    2.66
   5   2   0   27.81    2.58
  -5  -2   0   29.95    2.53
   5   2   1   -0.47    0.72
   5   2   1   -0.09    0.54
  -5  -2  -1    0.32    0.33
   5   2   1    0.55    0.58
  -5  -2  -1    0.53    0.55
   5   2   2  362.71    9.04
   5   2   2  351.28    9.35
   5   2   2  346.38    9.27
  -5  -2  -2  359.51    7.94
  -5  -2  -2  334.39    8.12
  -5  -2  -2  351.27    7.82
   5   2   3  224.28    7.18
   5   2   3  226.14    7.75
   5   2   3  217.83    7.65
  -5  -2  -3  223.64    6.94
  -5  -2  -3  223.40    6.66
   5   2   4   31.89    2.82
   5   2   4   38.41    3.33
   5   2   4   36.62    3.31
  -5  -2  -4   37.27    3.12
  -5  -2  -4   32.21    2.62
  -5  -2  -4   32.19    3.13
   5   2   5  307.57    9.85
  -5  -2  -5  309.27    9.76
  -5  -2  -5  317.06   10.28
   5   2   6  146.74    7.09
   5   2   6  148.90    4.27
  -5  -2  -6  146.32    7.25
   5   2   6  140.47    4.12
   5   2   6  145.70    4.27
   5   2   6  145.34    4.21
  -5  -2  -6  139.85    7.32
   5   2   6  139.11    4.09
   5   2   6  132.66    4.17
   5   2   7  209.42    8.71
   5   2   7  224.89    5.35
  -5  -2  -7  207.69    9.21
   5   2   7  219.60    5.34
   5   2   7  220.76    5.41
   5   2   7  225.71    5.41
   5   2   7  207.94    5.06
  -5  -2  -7  196.22    9.10
   5   2   7  221.23    5.37
   5   2   7  210.94    5.46
   5   2   8  241.36    5.52
   5   2   8  238.98    5.66
   5   2   8  247.02    5.79
   5   2   8  234.01    5.48
   5   2   8  242.12    5.73
   5   2   8  238.86    5.91
   5   2   9   76.08    2.93
   5   2   9   75.98    3.11
   5   2   9   76.34    3.17
  -5  -2  -9   75.44    2.83
   5   2   9   73.29    2.98
   5   2   9   75.44    3.16
   5   2   9   74.07    3.25
   5   2  10    6.07    0.88
   5   2  10    5.35    0.87
  -5  -2 -10    6.68    0.81
   5   2  10    7.85    0.98
   5   2  10    6.81    1.00
   5   2  10    6.17    0.98
   5   2  11  321.80    5.04
   5   2  11  337.98    5.18
  -5  -2 -11  333.43    4.50
   5   2  11  341.63    5.33
  -5  -2 -12    1.59    0.44
   5   2  12    1.37    0.33
   5   2  12    1.51    0.37
  -5  -2 -12    2.35    0.42
   5   3 -10  124.44    2.45
   5   3 -10  127.89    2.62
  -5  -3  10  126.67    2.51
   5   3 -10  121.20    2.57
  -5  -3  10  122.45    2.47
   5   3 -10  121.62    2.32
  -5  -3   9   41.91    1.83
   5   3  -9   47.89    1.99
   5   3  -9   46.25    2.05
  -5  -3   9   47.46    1.99
   5   3  -9   44.15    1.74
   5   3  -9   47.06    2.07
  -5  -3   9   46.11    1.99
   5   3  -9   46.11    1.93
   5   3  -8  339.80    6.28
  -5  -3   8  355.07    5.49
  -5  -3   8  351.93    6.10
   5   3  -8  361.79    5.95
   5   3  -8  358.49    6.45
  -5  -3   8  354.68    6.22
   5   3  -7   23.36    1.80
   5   3  -7   23.95    1.84
  -5  -3   7   26.33    1.69
  -5  -3   7   22.86    1.72
   5   3  -7   24.08    1.75
   5   3  -7   25.12    1.89
  -5  -3   7   29.08    2.03
   5   3  -6  178.10    4.96
   5   3  -6  185.31    5.06
  -5  -3   6  187.07    4.82
   5   3  -6  179.82    4.86
   5   3  -6  181.66    5.01
   5   3  -5   93.64    5.69
   5   3  -5   92.87    3.53
   5   3  -5   93.95    3.54
  -5  -3   5   87.39    5.91
   5   3  -5   93.40    3.48
   5   3  -5   94.11    3.55
  -5  -3   5   95.22    5.75
   5   3  -4    1.68    0.58
   5   3  -4    1.96    0.89
  -5  -3   4    0.59    0.71
   5   3  -4    1.11    0.47
   5   3  -4    1.74    0.60
   5   3  -4    3.81    0.74
  -5  -3   4    5.45    1.39
  -5  -3   4    3.44    1.09
   5   3  -3 1077.69   16.75
  -5  -3   3 1069.60   18.13
  -5  -3   3 1085.95   18.07
  -5  -3   3 1088.10   16.94
   5   3  -2  196.58    6.50
  -5  -3   2  182.68    7.02
   5   3  -2  183.05    6.48
   5   3  -2  194.25    6.68
  -5  -3   2  183.74    7.11
  -5  -3   2  183.72    6.56
  -5  -3   2  184.00    6.40
   5   3  -1  290.54    8.11
   5   3  -1  315.33    8.58
  -5  -3   1  293.29    8.53
  -5  -3   1  297.45    7.81
  -5  -3   1  287.67    7.80
  -5  -3   1  292.55    8.33
   5   3   0   13.96    1.82
   5   3   0   14.03    1.90
  -5  -3   0   12.28    1.60
  -5  -3   0   12.55    1.57
  -5  -3   0   11.72    1.63
   5   3   1  164.54    6.18
  -5  -3  -1  143.48    4.99
   5   3   1  159.68    6.26
   5   3   1  157.72    6.31
  -5  -3  -1  155.92    5.68
  -5  -3  -1  152.97    5.35
  -5  -3  -1  153.75    5.19
   5   3   2   45.90    3.34
  -5  -3  -2   56.03    3.48
   5   3   2   63.18    4.02
   5   3   2   51.96    3.73
  -5  -3  -2   57.93    3.56
  -5  -3  -2   51.55    3.00
  -5  -3  -2   52.87    3.08
  -5  -3  -2   51.30    3.20
   5   3   3    1.70    0.78
   5   3   3    1.78    0.88
  -5  -3  -3    2.52    0.89
   5   3   3   -0.06    0.61
  -5  -3  -3    1.61    0.73
   5   3   4  326.87    9.13
  -5  -3  -4  312.03    9.46
   5   3   4  327.86    9.66
   5   3   4  312.93    9.54
  -5  -3  -4  311.07    8.39
  -5  -3  -4  312.95    9.36
  -5  -3  -5 2022.01   25.95
   5   3   5 2103.62   25.13
   5   3   5 2090.46   25.26
  -5  -3  -5 2086.07   23.96
  -5  -3  -5 2026.59   25.53
  -5  -3  -6  210.69    8.92
   5   3   6  206.25    8.23
   5   3   6  226.19    5.25
  -5  -3  -6  222.90    8.60
   5   3   6  212.18    5.12
   5   3   6  209.07    5.30
  -5  -3  -6  204.46    8.70
   5   3   6  210.60    5.04
   5   3   6  204.70    5.08
   5   3   7    4.23    0.83
   5   3   7    2.98    0.73
  -5  -3  -7    2.56    1.38
   5   3   7    4.01    1.40
  -5  -3  -7    3.88    1.41
   5   3   7    3.33    0.77
  -5  -3  -7    4.49    1.49
   5   3   7    2.79    0.71
   5   3   7    2.66    0.69
   5   3   7    3.94    0.85
   5   3   8   25.19    1.83
   5   3   8   23.21    1.73
   5   3   8   24.88    1.91
   5   3   8   23.23    1.77
   5   3   8   23.39    1.82
   5   3   8   25.71    1.95
   5   3   8   23.56    1.85
   5   3   9  610.76    8.42
   5   3   9  596.20    8.40
   5   3   9  636.31    9.25
   5   3   9  618.99    9.07
   5   3   9  592.07    9.20
   5   3  10   36.76    1.83
   5   3  10   33.58    1.89
   5   3  10   36.14    2.13
   5   3  10   38.77    2.19
   5   3  10   36.61    2.22
   5   3  11   18.96    1.23
   5   3  11   19.08    1.37
  -5  -3 -11   19.32    1.27
   5   3  11   19.01    1.38
   5   3  11   17.45    1.41
   5   3  12   39.10    1.52
  -5  -3 -12   35.53    1.25
   5   3  12   38.61    1.52
  -5  -3 -12   39.95    1.57
  -5  -4   9   10.32    0.87
   5   4  -9   11.76    0.86
   5   4  -9   10.74    0.91
   5   4  -9    7.84    0.65
  -5  -4   9    6.14    0.57
  -5  -4   9   12.05    0.86
   5   4  -9   11.87    0.98
  -5  -4   9   10.43    0.87
   5   4  -9   10.51    0.81
  -5  -4   8  171.52    3.97
   5   4  -8  162.66    3.78
   5   4  -8  171.60    4.14
   5   4  -8  163.43    3.60
  -5  -4   8  164.12    3.56
  -5  -4   8  167.02    3.77
   5   4  -8  166.29    3.58
   5   4  -8  169.42    4.14
  -5  -4   8  170.46    3.95
   5   4  -8  163.62    3.82
   5   4  -7  249.31    5.25
   5   4  -7  262.00    5.71
   5   4  -7  256.16    5.12
  -5  -4   7  257.53    5.17
   5   4  -7  251.72    5.06
   5   4  -7  252.12    5.09
   5   4  -7  260.35    5.70
  -5  -4   7  263.00    5.43
   5   4  -7  252.58    5.32
   5   4  -7  252.46    4.94
   5   4  -6   19.13    1.60
   5   4  -6   18.92    1.70
  -5  -4   6   20.12    1.56
   5   4  -6   17.06    1.49
   5   4  -6   19.21    1.54
   5   4  -6   18.57    1.65
   5   4  -6   17.64    1.47
  -5  -4   6   19.27    1.65
   5   4  -6   18.22    1.47
   5   4  -6   20.26    1.67
   5   4  -5   48.55    2.40
   5   4  -5   45.86    2.43
   5   4  -5   44.82    2.54
  -5  -4   5   45.78    2.33
   5   4  -5   43.02    2.36
   5   4  -5   48.30    2.44
   5   4  -5   51.81    2.69
   5   4  -5   46.41    2.38
   5   4  -5   43.97    2.39
   5   4  -4  134.00    6.55
   5   4  -4  128.60    3.94
   5   4  -4  124.95    4.12
  -5  -4   4  116.75    6.78
   5   4  -4  125.15    3.99
   5   4  -4  128.84    3.88
   5   4  -4  125.24    4.08
  -5  -4   4  130.40    6.71
  -5  -4   4  125.23    6.71
   5   4  -4  131.07    3.61
   5   4  -4  127.07    3.85
   5   4  -3  736.64   14.27
   5   4  -3  709.65    8.99
  -5  -4   3  705.27   15.76
   5   4  -3  676.37    9.15
   5   4  -3  684.29    9.04
   5   4  -3  713.49    9.36
  -5  -4   3  704.80   14.96
  -5  -4   3  682.13   14.92
   5   4  -3  670.96    8.12
  -5  -4   3  726.40   14.86
   5   4  -3  686.77    8.72
  -5  -4   2  904.12   16.92
  -5  -4   2  905.55   16.44
  -5  -4   2  875.67   16.10
  -5  -4   2  908.88   16.13
   5   4  -1    2.58    0.89
   5   4  -1    3.84    1.11
  -5  -4   1    0.23    0.58
  -5  -4   1    1.92    0.94
  -5  -4   1    1.76    1.01
   5   4   0  336.21    8.88
   5   4   0  343.55    9.65
  -5  -4   0  312.93    8.94
  -5  -4   0  325.25    8.94
  -5  -4   0  321.43    9.11
   5   4   1    4.67    1.16
   5   4   1    4.64    1.26
  -5  -4  -1    4.34    1.14
  -5  -4  -1    3.03    1.01
  -5  -4  -1    2.92    0.99
   5   4   2  111.64    5.34
  -5  -4  -2  113.92    5.06
   5   4   2  108.61    5.53
  -5  -4  -2  108.80    5.38
  -5  -4  -2  105.65    4.93
  -5  -4  -2  109.91    5.06
  -5  -4  -3  359.14    9.69
   5   4   3  344.68   10.04
  -5  -4  -3  362.48    9.95
  -5  -4  -3  360.88    9.32
  -5  -4  -3  351.72    8.99
  -5  -4  -4  155.49    6.80
   5   4   4  169.64    7.08
   5   4   4  158.97    6.91
  -5  -4  -4  145.72    6.32
  -5  -4  -5  180.75    7.82
   5   4   5  194.37    7.74
   5   4   5  187.79    7.64
  -5  -4  -5  191.28    7.85
   5   4   6   26.82    1.83
   5   4   6   23.16    1.87
   5   4   6   21.50    2.61
   5   4   6   21.26    1.68
   5   4   6   25.65    2.94
  -5  -4  -6   13.84    2.50
   5   4   6   19.85    1.58
   5   4   6   20.03    1.64
  -5  -4  -6   19.11    2.83
   5   4   6   20.90    1.63
   5   4   6   20.42    1.60
   5   4   6   19.89    1.60
  -5  -4  -7 1093.06   21.42
   5   4   7 1135.42   12.22
   5   4   7 1129.62   12.18
   5   4   7 1087.31   12.55
  -5  -4  -7 1049.15   20.72
   5   4   7 1140.49   12.00
   5   4   7 1088.08   11.93
   5   4   7 1074.64   11.86
   5   4   8  376.92    7.00
   5   4   8  378.36    7.16
   5   4   8  359.02    7.37
   5   4   8  378.42    6.94
   5   4   8  375.56    7.18
   5   4   8  379.27    7.17
   5   4   8  354.96    6.75
   5   4   9   24.37    1.72
   5   4   9   24.72    1.88
   5   4   9   25.16    1.80
   5   4   9   26.14    1.93
   5   4   9   28.48    2.01
   5   4   9   21.99    1.74
   5   4  10   45.61    2.09
   5   4  10   46.11    2.39
   5   4  10   47.80    2.44
   5   4  10   44.63    2.37
  -5  -4 -11  102.70    2.79
   5   4  11  103.09    3.13
   5   4  11  101.31    3.11
   5   4  11  100.93    3.18
   5   4  12  186.29    3.40
  -5  -4 -12  185.99    3.19
   5   4  12  184.35    3.37
  -5  -4 -12  195.49    3.51
  -5  -5   9   41.31    1.21
  -5  -5   8    5.84    0.73
   5   5  -8    6.39    0.65
   5   5  -8    4.92    0.69
   5   5  -8    5.46    0.68
  -5  -5   8    4.08    0.61
  -5  -5   8    4.47    0.55
   5   5  -8    5.24    0.66
   5   5  -8    5.68    0.75
  -5  -5   8    6.26    0.72
   5   5  -8    5.38    0.65
   5   5  -8    5.56    0.63
  -5  -5   7  285.56    5.28
   5   5  -7  275.50    4.85
   5   5  -7  280.01    5.33
   5   5  -7  280.36    5.01
  -5  -5   7  289.44    5.08
  -5  -5   7  274.40    4.58
   5   5  -7  283.09    5.06
   5   5  -7  280.21    5.41
  -5  -5   7  286.31    5.03
   5   5  -7  276.76    5.03
   5   5  -7  274.22    4.94
  -5  -5   6    1.49    0.62
   5   5  -6    3.69    0.74
   5   5  -6    1.59    0.64
   5   5  -6    1.40    0.54
  -5  -5   6    1.75    0.52
   5   5  -6    0.59    0.47
   5   5  -6    1.46    0.65
  -5  -5   6    1.45    0.60
   5   5  -6    1.33    0.57
   5   5  -6    0.92    0.50
   5   5  -5  297.41    5.92
   5   5  -5  308.42    6.46
   5   5  -5  296.25    6.10
   5   5  -5  293.97    6.14
   5   5  -5  309.48    6.50
  -5  -5   5  309.52    5.93
   5   5  -5  308.76    6.19
   5   5  -5  299.08    6.15
   5   5  -4  984.28   10.90
   5   5  -4 1001.80   11.76
   5   5  -4  979.09   11.07
   5   5  -4 1007.50   11.42
   5   5  -4  974.96   11.64
  -5  -5   4 1021.02   10.69
   5   5  -4  991.01   11.08
   5   5  -4  984.59   11.35
  -5  -5   3   33.11    3.71
   5   5  -3   30.75    1.96
   5   5  -3   34.31    2.15
   5   5  -3   33.05    2.03
   5   5  -3   34.91    2.12
   5   5  -3   31.30    2.09
  -5  -5   3   33.74    3.43
  -5  -5   3   29.61    3.54
  -5  -5   3   24.75    3.01
   5   5  -3   32.77    2.01
   5   5  -3   32.53    2.08
   5   5  -2  180.89    4.55
   5   5  -2  185.30    4.86
   5   5  -2  187.24    4.61
   5   5  -2  202.54    8.17
   5   5  -2  195.67    4.82
   5   5  -2  183.87    4.87
  -5  -5   2  181.46    8.11
   5   5  -2  192.01    4.55
  -5  -5   2  180.77    7.93
   5   5  -2  179.78    4.40
   5   5  -2  182.35    4.54
   5   5  -2  179.16    4.73
  -5  -5   2  186.06    8.32
   5   5  -1   21.51    1.56
   5   5  -1   19.78    1.56
   5   5  -1   22.88    2.84
  -5  -5   1   18.40    2.58
  -5  -5   1   23.17    2.85
   5   5  -1   26.45    1.78
  -5  -5   1   20.66    2.66
   5   5   0  318.61   10.18
  -5  -5   0  295.74    9.65
  -5  -5   0  289.39    9.56
  -5  -5   0  286.07    9.53
  -5  -5  -1 2435.26   26.90
  -5  -5  -1 2446.85   27.19
  -5  -5  -2  807.21   15.23
  -5  -5  -2  814.61   16.03
  -5  -5  -2  794.46   15.33
  -5  -5  -3   17.86    2.28
   5   5   3   16.83    2.45
  -5  -5  -3   18.84    2.56
  -5  -5  -3   16.54    2.32
  -5  -5  -4 1080.82   18.72
   5   5   4 1142.71   19.13
  -5  -5  -4 1100.60   19.25
   5   5   5   91.42    3.22
   5   5   5   94.15    3.35
  -5  -5  -5   92.51    5.80
   5   5   5   93.04    5.55
   5   5   5   91.76    3.43
   5   5   5   84.20    3.30
  -5  -5  -5   85.91    5.29
   5   5   5   90.81    3.30
   5   5   6   35.07    2.09
  -5  -5  -6   31.97    3.70
   5   5   6   27.32    3.13
   5   5   6   34.32    2.18
   5   5   6   30.62    1.92
   5   5   6   31.45    2.12
   5   5   6   33.11    2.12
  -5  -5  -6   32.07    3.57
   5   5   6   33.51    2.08
   5   5   6   31.17    1.96
   5   5   7  158.97    4.48
   5   5   7  154.43    4.57
   5   5   7  158.62    4.49
   5   5   7  154.86    4.66
   5   5   7  156.91    4.49
   5   5   7  158.26    4.57
   5   5   7  151.19    4.48
   5   5   8   53.73    2.66
   5   5   8   50.52    2.57
   5   5   8   52.35    2.80
   5   5   8   50.39    2.53
   5   5   8   52.75    2.70
   5   5   8   51.42    2.58
   5   5   9   10.31    1.16
   5   5   9   10.55    1.23
   5   5   9   10.70    1.33
   5   5   9   11.11    1.18
   5   5   9   12.82    1.39
   5   5   9   12.18    1.29
   5   5   9   10.79    1.17
   5   5  10   77.78    2.69
   5   5  10   76.80    2.92
   5   5  10   75.86    3.02
   5   5  10   77.97    2.98
   5   5  10   74.82    2.77
  -5  -5 -11   29.24    1.60
   5   5  11   27.85    1.59
   5   5  11   30.22    1.71
   5   5  11   28.93    1.65
  -5  -5 -12   11.72    0.82
   5   5  12   14.34    0.94
  -5  -5 -12   14.22    0.93
   5   5  12   13.33    0.95
  -5  -6   8   78.15    1.74
  -5  -6   8   72.35    1.63
  -5  -6   7   -0.09    0.36
   5   6  -7    0.07    0.25
   5   6  -7    0.29    0.38
   5   6  -7   -0.06    0.40
  -5  -6   7   -0.25    0.45
   5   6  -7    0.60    0.48
  -5  -6   7    0.29    0.38
  -5  -6   7    1.07    0.35
   5   6  -7    0.58    0.38
   5   6  -7    0.45    0.42
  -5  -6   6    1.17    0.53
   5   6  -6    1.20    0.42
   5   6  -6    1.51    0.57
   5   6  -6    1.11    0.53
   5   6  -6    1.32    0.53
   5   6  -6    0.66    0.50
  -5  -6   6    1.54    0.44
   5   6  -6    1.18    0.52
   5   6  -6    1.38    0.55
  -5  -6   5   86.05    3.06
   5   6  -5   85.01    2.83
   5   6  -5   84.72    3.19
   5   6  -5   78.41    3.01
   5   6  -5   82.82    3.16
   5   6  -5   83.19    3.24
  -5  -6   5   89.36    2.87
   5   6  -5   81.34    3.00
   5   6  -5   81.89    3.12
  -5  -6   4    0.74    0.41
   5   6  -4    1.09    0.52
   5   6  -4    0.26    0.55
   5   6  -4    0.67    0.50
   5   6  -4    0.43    0.50
   5   6  -4    0.05    0.51
   5   6  -4    0.28    0.46
  -5  -6   3    0.62    0.47
   5   6  -3    0.66    0.42
   5   6  -3    0.54    0.50
   5   6  -3    0.51    0.51
   5   6  -3    0.88    0.53
   5   6  -3    0.27    0.51
   5   6  -3    0.41    0.44
   5   6  -3    0.74    0.43
   5   6  -3    0.64    0.56
  -5  -6   2   40.07    2.13
   5   6  -2   38.24    2.12
   5   6  -2   38.98    2.33
   5   6  -2   41.26    2.35
   5   6  -2   41.33    2.39
   5   6  -2   40.51    2.24
   5   6  -2   41.64    2.27
   5   6  -2   41.46    2.42
   5   6  -1  474.57    7.32
   5   6  -1  481.08    7.94
   5   6  -1  500.51   14.06
   5   6  -1  476.68    7.59
   5   6  -1  492.27    8.01
  -5  -6   1  476.37   13.77
  -5  -6   1  462.40   13.39
   5   6  -1  469.53    7.76
  -5  -6   1  460.22   13.45
   5   6  -1  463.85    7.35
   5   6  -1  482.92    8.02
   5   6   0    5.93    0.88
   5   6   0    6.11    0.96
   5   6   0    8.04    1.84
   5   6   0    5.51    0.94
  -5  -6   0    5.21    1.53
   5   6   0    8.63    1.11
  -5  -6   0    7.12    1.78
  -5  -6   0    6.09    1.70
   5   6   0    5.59    0.90
   5   6   0    6.69    0.92
   5   6   0    5.98    0.98
   5   6   1  360.09    6.31
   5   6   1  355.13    6.45
   5   6   1  358.07    6.77
   5   6   1  370.33    6.80
  -5  -6  -1  355.73   11.33
  -5  -6  -1  350.85   11.43
  -5  -6  -1  348.84   11.43
   5   6   1  363.34    6.69
   5   6   1  356.42    6.15
   5   6   1  370.92    6.88
   5   6   2  599.14    8.15
   5   6   2  569.40    7.40
   5   6   2  574.40    8.32
   5   6   2  593.67    8.77
   5   6   2  607.47    8.66
  -5  -6  -2  579.49   14.18
  -5  -6  -2  573.87   14.53
  -5  -6  -2  574.78   14.40
   5   6   2  602.58    8.59
   5   6   2  588.39    7.62
   5   6   2  616.68    8.85
   5   6   3  511.16    7.58
   5   6   3  504.89    7.21
  -5  -6  -3  521.64   13.12
   5   6   3  548.86   14.12
   5   6   3  511.94    8.02
   5   6   3  526.97    8.39
   5   6   3  533.95    8.35
   5   6   3  504.78    7.74
  -5  -6  -3  485.70   13.53
  -5  -6  -3  520.92   13.75
   5   6   3  528.67    8.08
   5   6   3  535.39    8.27
   5   6   4  281.95    5.72
   5   6   4  286.31    5.67
   5   6   4  276.93    5.71
  -5  -6  -4  288.65   10.20
   5   6   4  299.19    6.43
   5   6   4  297.52    6.35
   5   6   4  281.60    5.99
  -5  -6  -4  295.55   10.70
  -5  -6  -4  276.28   10.10
   5   6   4  290.19    6.04
   5   6   5  357.02    6.55
   5   6   5  343.54    6.60
  -5  -6  -5  360.12   11.93
   5   6   5  365.64   11.37
   5   6   5  363.48    7.18
   5   6   5  354.88    7.06
   5   6   5  349.03    6.93
  -5  -6  -5  336.75   11.60
  -5  -6  -5  335.35   11.34
   5   6   5  353.86    6.71
   5   6   6    3.95    0.86
   5   6   6    3.30    0.78
   5   6   6    4.48    0.83
   5   6   6    3.72    0.82
   5   6   7  178.25    4.73
   5   6   7  172.65    4.87
   5   6   7  166.21    4.95
   5   6   7  163.77    4.79
   5   6   7  173.92    4.68
   5   6   7  163.36    4.58
   5   6   8   27.20    1.94
   5   6   8   24.87    1.68
   5   6   8   25.73    1.94
   5   6   8   27.62    1.84
   5   6   8   24.81    1.83
   5   6   8   27.33    1.92
   5   6   9   91.31    3.22
   5   6   9   90.26    3.09
  -5  -6  -9   88.82    2.88
   5   6   9   88.61    3.48
   5   6   9   91.20    3.05
   5   6   9   91.30    3.38
   5   6  10  442.36    6.16
   5   6  10  441.85    6.24
   5   6  10  436.59    7.15
  -5  -6 -10  428.92    6.09
   5   6  10  438.00    6.83
   5   6  10  439.50    6.27
  -5  -6 -11  186.63    3.85
  -5  -6 -11  185.40    3.38
   5   6  11  187.87    3.49
  -5  -6 -11  179.84    3.19
   5   6  11  193.42    3.97
   5   6  11  182.70    3.52
  -5  -6 -12    3.25    0.47
  -5  -6 -12    3.90    0.52
   5   6  12    4.18    0.55
  -5  -7   6    2.64    0.53
  -5  -7   6    2.85    0.50
  -5  -7   6    1.86    0.47
   5   7  -6    2.71    0.57
  -5  -7   6    2.90    0.53
   5   7  -6    3.14    0.51
   5   7  -6    2.81    0.59
  -5  -7   5   37.04    1.75
   5   7  -5   37.17    1.79
  -5  -7   5   37.23    1.80
   5   7  -5   37.25    1.89
  -5  -7   5   36.24    1.75
   5   7  -5   36.35    1.75
   5   7  -5   36.87    1.91
  -5  -7   4    8.60    0.97
   5   7  -4    8.31    1.00
   5   7  -4    8.83    1.09
  -5  -7   4    9.00    1.00
   5   7  -4    8.93    0.95
   5   7  -4    9.11    1.04
   5   7  -4    8.78    1.10
  -5  -7   3  233.86    4.80
   5   7  -3  227.31    4.50
   5   7  -3  226.06    5.19
  -5  -7   3  242.71    5.18
   5   7  -3  226.35    5.39
  -5  -7   3  227.55    4.88
   5   7  -3  230.05    5.04
   5   7  -3  232.86    5.16
   5   7  -3  233.51    5.52
   5   7  -2    6.45    0.86
   5   7  -2    6.52    1.00
   5   7  -2    7.28    1.00
   5   7  -2    7.72    1.03
   5   7  -2    7.61    1.12
  -5  -7   2    6.46    0.89
   5   7  -2    6.63    1.00
   5   7  -2    7.03    1.02
   5   7  -2    5.70    1.02
   5   7  -1    3.83    0.76
   5   7  -1    3.10    0.77
   5   7  -1    3.32    0.78
   5   7  -1    3.33    0.78
  -5  -7   1    2.93    0.61
   5   7  -1    3.39    0.78
   5   7  -1    3.01    0.69
   5   7  -1    2.95    0.79
   5   7   0  169.94    4.32
   5   7   0  179.80    4.82
   5   7   0  171.58    4.82
   5   7   0  171.50    4.90
   5   7   0  172.69    4.80
   5   7   0  174.71    4.57
   5   7   0  170.01    4.90
   5   7   1  387.73    6.52
   5   7   1  388.34    7.18
   5   7   1  404.03    7.46
   5   7   1  404.30    7.04
   5   7   1  404.84    7.45
   5   7   1  394.50    7.27
   5   7   1  408.82    6.88
   5   7   1  396.34    7.41
   5   7   2  467.28    7.21
   5   7   2  468.76    7.93
   5   7   2  464.83    8.12
   5   7   2  477.48    7.97
   5   7   2  456.72    7.79
   5   7   2  454.73    7.13
   5   7   2  458.00    7.99
   5   7   3   20.26    1.56
   5   7   3   22.48    1.80
   5   7   3   23.15    1.87
   5   7   3   23.96    1.90
   5   7   3   20.18    1.61
   5   7   3   22.02    1.76
   5   7   3   22.48    1.58
   5   7   4   83.76    3.14
   5   7   4   78.69    3.12
   5   7   4   84.98    3.55
   5   7   4   84.71    3.53
   5   7   4   80.78    3.29
   5   7   4   80.38    3.28
   5   7   5   67.47    2.85
   5   7   5   62.58    2.86
   5   7   5   65.39    3.15
   5   7   5   65.47    3.11
   5   7   5   63.71    2.99
   5   7   5   66.71    2.98
   5   7   6   31.99    2.09
   5   7   6   23.88    1.84
   5   7   6   26.80    2.03
   5   7   6   25.94    1.96
   5   7   6   25.12    1.77
   5   7   6   24.38    1.78
   5   7   7   28.01    2.00
   5   7   7   26.61    2.01
   5   7   7   25.10    1.83
   5   7   7   26.35    1.80
   5   7   7   25.92    1.75
   5   7   8  512.19    7.96
   5   7   8  488.60    8.11
   5   7   8  492.92    7.90
   5   7   8  501.50    7.24
   5   7   8  481.31    7.43
   5   7   8  491.38    7.64
   5   7   9   60.77    2.51
   5   7   9   59.47    2.65
   5   7   9   56.74    2.19
   5   7   9   61.46    2.61
   5   7  10    1.40    0.44
  -5  -7 -10    1.02    0.39
   5   7  10    0.98    0.57
  -5  -7 -10    0.72    0.44
   5   7  10    1.02    0.54
  -5  -7 -11    4.18    0.65
  -5  -7 -11    3.51    0.48
  -5  -7 -11    3.85    0.51
   5   7  11    4.20    0.64
  -5  -8   5    8.56    0.70
  -5  -8   5    8.70    0.69
   5   8  -5    9.39    0.78
  -5  -8   5    9.20    0.68
   5   8  -5    7.97    0.65
   5   8  -5    9.44    0.77
  -5  -8   4  218.05    3.90
  -5  -8   4  210.50    3.33
  -5  -8   4  218.58    3.63
  -5  -8   4  221.43    3.79
   5   8  -4  217.61    4.15
  -5  -8   4  220.56    3.74
   5   8  -4  218.96    3.57
   5   8  -4  222.56    3.88
   5   8  -4  216.41    4.16
  -5  -8   3   54.17    2.21
  -5  -8   3   52.23    2.05
   5   8  -3   53.13    2.33
  -5  -8   3   53.83    2.06
   5   8  -3   55.16    2.18
   5   8  -3   53.26    2.19
   5   8  -3   53.47    2.34
  -5  -8   2  137.37    3.69
  -5  -8   2  126.67    3.33
   5   8  -2  127.34    3.52
   5   8  -2  125.50    3.58
   5   8  -2  132.06    3.92
  -5  -8   2  132.06    3.35
   5   8  -2  133.42    3.75
   5   8  -2  131.69    3.67
   5   8  -2  133.55    3.94
  -5  -8   1  229.42    4.90
  -5  -8   1  222.62    4.46
   5   8  -1  225.44    5.04
   5   8  -1  225.79    5.17
   5   8  -1  233.53    5.41
  -5  -8   1  227.17    4.44
   5   8  -1  233.84    5.26
   5   8  -1  229.77    5.02
   5   8  -1  237.18    5.45
  -5  -8   0   63.68    2.62
   5   8   0   61.72    2.80
   5   8   0   60.60    2.84
   5   8   0   57.81    2.77
   5   8   0   60.32    2.66
   5   8   0   64.58    2.94
  -5  -8  -1  173.68    4.20
   5   8   1  174.79    4.78
   5   8   1  174.00    4.90
   5   8   1  181.91    4.59
   5   8   1  180.48    4.87
   5   8   1  182.08    4.61
   5   8   1  178.30    4.90
   5   8   2    7.45    0.90
   5   8   2    6.65    1.05
   5   8   2    5.54    0.99
   5   8   2    6.51    1.00
   5   8   2    6.34    1.02
   5   8   2    6.27    0.94
   5   8   2    7.05    1.09
   5   8   3   34.30    1.89
   5   8   3   39.15    2.37
   5   8   3   35.67    2.32
   5   8   3   37.69    2.32
   5   8   3   34.34    2.06
   5   8   3   36.90    2.26
   5   8   3   34.85    2.03
   5   8   4   48.68    2.25
   5   8   4   41.62    2.27
   5   8   4   41.71    2.51
   5   8   4   46.16    2.60
   5   8   4   42.23    2.34
   5   8   4   42.44    2.35
   5   8   5   14.84    1.36
   5   8   5   13.41    1.36
   5   8   5   13.04    1.44
   5   8   5   13.35    1.44
   5   8   5   12.08    1.32
   5   8   5   13.86    1.37
   5   8   6  221.32    5.23
   5   8   6  232.54    5.61
   5   8   6  218.91    5.40
   5   8   6  221.97    5.03
  -5  -8  -7  153.93    3.55
   5   8   7  159.62    4.45
   5   8   7  151.15    4.37
   5   8   7  148.86    3.89
   5   8   7  150.50    3.87
  -5  -8  -8   32.36    1.63
   5   8   8   31.96    1.88
   5   8   8   30.32    1.94
   5   8   8   30.81    1.78
   5   8   8   31.13    1.63
   5   8   8   30.61    1.77
   5   8   9   38.59    1.82
  -5  -8  -9   38.20    1.76
   5   8   9   35.30    1.80
   5   8   9   34.97    1.76
   5   8  10  196.01    3.19
  -5  -8 -10  192.35    3.22
   5   8  10  196.67    3.68
  -5  -8 -10  194.11    3.54
   5   8  10  194.94    3.56
  -5  -8 -11  245.07    3.36
   5   8  11  307.94    3.52
  -5  -9   3    1.58    0.40
  -5  -9   3    1.48    0.40
  -5  -9   3    1.31    0.29
  -5  -9   3    1.83    0.31
   5   9  -3    2.25    0.45
   5   9  -3    1.04    0.38
   5   9  -3    1.17    0.42
  -5  -9   2  173.85    3.30
  -5  -9   2  173.48    3.31
  -5  -9   2  159.55    2.70
   5   9  -2  163.79    3.06
   5   9  -2  167.44    3.18
  -5  -9   2  163.18    2.77
   5   9  -2  172.33    3.42
   5   9  -2  177.24    3.41
   5   9  -2  177.19    3.60
  -5  -9   1  236.48    4.15
  -5  -9   1  240.40    4.30
   5   9  -1  240.05    4.34
   5   9  -1  242.73    4.49
   5   9  -1  238.29    4.52
   5   9  -1  242.87    4.39
   5   9  -1  242.17    4.62
  -5  -9   0  116.85    2.99
  -5  -9   0  118.99    3.22
   5   9   0  111.91    3.27
   5   9   0  115.03    3.41
   5   9   0  115.67    3.39
   5   9   0  116.87    3.24
   5   9   0  115.28    3.38
  -5  -9  -1    8.25    0.85
  -5  -9  -1    9.42    1.01
   5   9   1    8.29    1.03
   5   9   1    8.47    1.07
   5   9   1    8.63    0.91
   5   9   1    7.77    1.06
   5   9   1    8.33    0.99
  -5  -9  -2   12.40    1.11
   5   9   2   11.88    1.22
   5   9   2   11.81    1.30
   5   9   2   10.96    1.13
   5   9   2   11.48    1.19
  -5  -9  -3   11.04    0.99
   5   9   3   10.33    1.26
   5   9   3   11.27    1.21
   5   9   3   11.21    1.06
   5   9   3   10.16    1.13
  -5  -9  -4  181.85    3.96
   5   9   4  176.72    4.08
   5   9   4  184.94    4.75
   5   9   4  185.78    4.65
   5   9   4  177.34    4.27
   5   9   4  168.24    4.21
  -5  -9  -5   23.68    1.37
   5   9   5   22.26    1.51
   5   9   5   22.11    1.68
   5   9   5   22.69    1.69
   5   9   5   22.79    1.62
   5   9   5   21.76    1.50
  -5  -9  -6    5.28    0.72
   5   9   6    5.23    0.88
   5   9   6    5.35    0.87
   5   9   6    4.44    0.71
  -5  -9  -7   30.62    1.45
  -5  -9  -7   32.86    1.64
   5   9   7   31.88    1.79
   5   9   7   29.84    1.76
   5   9   7   31.07    1.48
   5   9   7   29.68    1.45
  -5  -9  -8    5.69    0.65
   5   9   8    5.60    0.74
   5   9   8    4.36    0.61
   5   9   9  126.24    2.63
  -5  -9  -9  125.15    2.63
  -5  -9 -10    3.88    0.48
  -5 -10   1    6.69    0.53
  -5 -10   0   38.11    1.35
  -5 -10   0   37.92    1.36
   5  10   0   37.30    1.43
   5  10   0   37.88    1.44
  -5 -10  -1    4.59    0.58
  -5 -10  -1    5.23    0.59
  -5 -10  -1    5.03    0.61
   5  10   1    4.94    0.69
   5  10   1    3.84    0.61
  -5 -10  -2  146.68    2.98
  -5 -10  -2  141.84    2.72
  -5 -10  -2  148.64    3.01
   5  10   2  145.90    3.33
   5  10   2  138.59    2.72
   5  10   2  147.50    3.17
  -5 -10  -3  101.85    2.59
  -5 -10  -3   94.21    2.09
  -5 -10  -3   98.41    2.45
   5  10   3   98.35    2.84
   5  10   3   97.23    2.58
   5  10   3   99.13    2.62
  -5 -10  -4  157.85    3.21
  -5 -10  -4  153.09    2.92
   5  10   4  158.78    3.40
   5  10   4  154.81    3.16
  -5 -10  -5   32.94    1.44
  -5 -10  -5   30.44    1.19
   5  10   5   34.07    1.62
   5  10   5   29.14    1.40
   5  10   5   33.06    1.37
  -5 -10  -6    0.09    0.27
  -5 -10  -6    0.14    0.33
   5  10   6    0.43    0.43
   5  10   6    0.07    0.40
   5  10   6    0.24    0.25
  -5 -10  -7   76.88    1.91
  -5 -10  -7   75.05    1.96
  -5 -10  -8   41.08    1.27
  -6   6   4   63.45    1.58
   6  -6  -4   63.36    1.59
  -6   6   3    2.84    0.48
   6  -6  -3    3.68    0.51
   6  -6  -3    2.99    0.46
  -6   6   3    3.88    0.51
   6  -6  -3    2.98    0.39
   6  -6  -2    9.35    0.71
  -6   6   2    7.27    0.68
   6  -6  -2    8.80    0.69
  -6   6   2   10.01    0.77
   6  -6  -2    9.50    0.66
  -6   6   2    8.75    0.62
  -6   6   1   82.97    2.01
   6  -6  -1   82.16    1.81
  -6   6   1   80.31    1.86
   6  -6  -1   77.44    1.74
  -6   6   0    0.48    0.32
   6  -6   0    0.37    0.26
  -6   6   0    0.71    0.28
  -6   5   7   64.66    1.68
   6  -5  -7   68.04    1.66
   6  -5  -7   67.67    1.69
  -6   5   7   65.96    1.73
  -6   5   6  177.02    3.31
   6  -5  -6  178.27    3.04
   6  -5  -6  177.48    3.07
  -6   5   6  182.45    3.29
  -6   5   5  169.91    3.58
   6  -5  -5  164.07    3.08
   6  -5  -5  166.80    3.17
  -6   5   5  170.14    3.25
   6  -5  -5  162.76    2.71
  -6   5   5  168.07    3.45
   6  -5  -5  163.88    3.26
   6  -5  -4  172.96    3.63
   6  -5  -4  158.31    3.02
  -6   5   4  177.50    3.91
   6  -5  -4  168.13    3.65
   6  -5  -4  160.80    3.15
  -6   5   4  170.42    3.62
   6  -5  -4  166.34    3.19
  -6   5   4  147.49    3.40
   6  -5  -3   50.49    2.07
  -6   5   3   50.23    2.18
   6  -5  -3   47.31    2.03
  -6   5   3   47.70    2.06
   6  -5  -3   50.05    1.91
  -6   5   3   48.38    1.88
  -6   5   3   42.86    1.90
   6  -5  -2  127.46    3.27
  -6   5   2  127.60    3.49
   6  -5  -2  128.19    3.29
  -6   5   2  135.01    3.56
   6  -5  -2  118.19    3.13
   6  -5  -2  128.24    3.14
  -6   5   2  128.85    3.21
   6  -5  -1  132.62    3.27
   6  -5  -1  136.97    3.30
   6  -5  -1  125.88    3.18
  -6   5   1  139.31    3.63
   6  -5  -1  123.97    3.11
   6  -5  -1  134.27    3.22
  -6   5   1  133.55    3.37
   6  -5   0    6.96    0.79
   6  -5   0    6.29    0.74
   6  -5   0    5.72    0.74
  -6   5   0    6.03    0.66
   6  -5   0    4.81    0.65
  -6   5   0    4.57    0.76
   6  -5   0    4.73    0.69
  -6   5   0    5.28    0.76
   6  -5   1    0.40    0.33
   6  -5   1    0.50    0.33
   6  -5   1    0.14    0.37
  -6   5  -1    0.10    0.30
  -6   5  -1    0.13    0.41
   6  -5   1    0.11    0.36
  -6   5  -1    0.75    0.43
   6  -5   2   15.65    1.07
  -6   5  -2   15.91    1.02
  -6   5  -2   15.26    1.09
   6  -5   2   14.94    0.88
  -6   5  -2   16.29    1.13
   6  -5   3    0.01    0.31
  -6   5  -3   -0.05    0.27
  -6   5  -3    0.29    0.33
  -6   5  -3    0.09    0.35
  -6   4   8   47.35    1.47
   6  -4  -8   49.09    1.61
   6  -4  -8   48.23    1.62
   6  -4  -8   49.96    1.56
  -6   4   8   44.64    1.58
  -6   4   8   48.54    1.66
  -6   4   7    0.96    0.43
   6  -4  -7    2.30    0.56
   6  -4  -7    1.21    0.48
   6  -4  -7    1.00    0.42
  -6   4   7    1.04    0.40
  -6   4   7    0.83    0.47
  -6   4   7    1.49    0.50
  -6   4   6   76.41    2.62
   6  -4  -6   76.75    2.54
   6  -4  -6   75.53    2.55
   6  -4  -6   73.18    2.31
  -6   4   6   74.95    2.67
   6  -4  -6   69.19    2.32
  -6   4   5    0.79    0.49
   6  -4  -5    0.62    0.49
   6  -4  -5    0.29    0.41
   6  -4  -5    1.13    0.50
   6  -4  -5    0.11    0.42
   6  -4  -5    0.22    0.33
  -6   4   5    0.68    0.41
   6  -4  -5    0.34    0.29
  -6   4   5    1.25    0.62
   6  -4  -4   13.43    1.24
  -6   4   4   15.08    1.39
   6  -4  -4   15.21    1.24
   6  -4  -4   14.36    1.31
   6  -4  -4   15.12    1.26
   6  -4  -4   13.27    1.04
  -6   4   4   14.96    1.28
   6  -4  -4   15.15    1.20
   6  -4  -3  106.49    3.45
   6  -4  -3  100.35    3.00
   6  -4  -3  105.67    3.48
   6  -4  -3  100.23    3.03
  -6   4   3  109.37    3.53
   6  -4  -3  102.93    3.21
  -6   4   3  103.51    3.13
   6  -4  -2  215.67    4.92
   6  -4  -2  215.74    4.95
   6  -4  -2  210.71    4.78
  -6   4   2  221.28    5.22
   6  -4  -2  223.50    4.82
  -6   4   2  211.60    4.70
   6  -4  -1    8.09    1.00
   6  -4  -1    7.26    0.99
   6  -4  -1    7.00    0.97
   6  -4  -1    6.79    0.91
   6  -4  -1    8.14    1.02
  -6   4   1    6.34    0.94
   6  -4   0  144.24    3.84
   6  -4   0  152.17    3.93
   6  -4   0  140.53    4.11
   6  -4   0  147.21    4.10
  -6   4   0  146.99    3.71
   6  -4   0  136.44    3.69
   6  -4   0  149.47    3.91
   6  -4   0  133.60    3.55
  -6   4   0  142.41    4.07
   6  -4   1  211.86    4.37
   6  -4   1  215.83    4.42
   6  -4   1  207.04    4.85
   6  -4   1  218.29    4.91
  -6   4  -1  213.29    4.59
   6  -4   1  206.78    4.19
   6  -4   1  214.32    4.48
   6  -4   1  203.35    4.39
  -6   4  -1  217.15    5.00
   6  -4   2  107.59    3.33
   6  -4   2  108.67    3.35
   6  -4   2  112.83    2.91
  -6   4  -2  106.83    3.27
   6  -4   2  111.36    3.01
   6  -4   2  110.00    3.20
   6  -4   3   25.00    1.54
  -6   4  -3   27.78    1.42
   6  -4   3   28.70    1.65
   6  -4   3   26.35    1.41
  -6   4  -3   24.95    1.56
   6  -4   3   25.54    1.29
   6  -4   3   26.71    1.55
   6  -4   4   84.48    2.44
   6  -4   4   92.17    2.60
  -6   4  -4   92.25    2.44
   6  -4   4   91.87    2.43
  -6   4  -4   94.34    2.79
   6  -4   4   93.78    2.64
   6  -4   5   15.22    0.90
  -6   4  -5   15.38    0.90
   6  -4   5   16.33    0.93
  -6   4  -5   16.33    1.08
   6  -4   5   15.69    0.99
  -6   4  -6   15.45    0.83
   6  -4   6   14.80    0.78
   6  -3  -9    4.84    0.55
   6  -3  -9    4.24    0.49
   6  -3  -9    5.33    0.58
  -6   3   9    2.67    0.45
   6  -3  -9    3.69    0.46
  -6   3   9    6.16    0.66
  -6   3   9    4.62    0.53
  -6   3   8   66.38    2.00
   6  -3  -8   70.34    2.27
   6  -3  -8   69.86    2.05
   6  -3  -8   68.80    2.30
   6  -3  -8   70.92    2.25
  -6   3   8   62.19    2.13
   6  -3  -8   66.23    1.92
  -6   3   8   72.86    2.41
  -6   3   8   72.14    2.31
  -6   3   7   27.17    1.56
   6  -3  -7   25.36    1.58
   6  -3  -7   25.03    1.36
   6  -3  -7   25.88    1.62
   6  -3  -7   26.84    1.56
  -6   3   7   24.73    1.55
   6  -3  -7   25.35    1.32
  -6   3   7   25.85    1.67
  -6   3   7   26.71    1.65
  -6   3   6    9.70    1.07
   6  -3  -6    8.86    1.06
   6  -3  -6    8.38    1.07
   6  -3  -6    9.22    1.02
  -6   3   6    9.52    1.15
   6  -3  -6    7.17    0.90
  -6   3   5   52.92    2.55
   6  -3  -5   52.87    2.47
   6  -3  -5   51.36    2.50
   6  -3  -5   52.39    2.49
   6  -3  -5   48.93    2.29
   6  -3  -5   53.16    2.16
  -6   3   5   50.65    2.53
   6  -3  -5   52.00    2.45
   6  -3  -4   14.23    1.39
  -6   3   4   14.28    1.43
   6  -3  -4   13.42    1.29
   6  -3  -4   12.60    1.36
   6  -3  -4   13.08    1.31
   6  -3  -4   12.66    1.19
  -6   3   4   14.97    1.32
   6  -3  -4   13.38    1.24
   6  -3  -3  163.95    4.59
   6  -3  -3  156.49    4.19
   6  -3  -3  159.50    4.57
   6  -3  -3  162.28    4.28
   6  -3  -3  150.82    3.89
  -6   3   3  170.47    4.61
   6  -3  -3  160.76    4.28
   6  -3  -2   45.22    2.44
   6  -3  -2   49.36    2.27
   6  -3  -2   51.39    2.62
   6  -3  -2   50.26    2.29
   6  -3  -2   49.64    2.55
   6  -3  -2   46.75    2.48
   6  -3  -2   50.24    2.45
  -6   3   2   51.62    2.42
   6  -3  -1   18.56    1.57
   6  -3  -1   18.04    1.56
   6  -3  -1   18.74    1.63
   6  -3  -1   17.81    1.54
   6  -3  -1   20.39    1.61
  -6   3   1   19.82    1.60
   6  -3   0  243.61    5.47
   6  -3   0  248.78    5.43
   6  -3   0  245.38    5.77
   6  -3   0  261.05    5.85
   6  -3   0  247.50    5.32
   6  -3   0  263.85    5.59
   6  -3   0  249.41    5.04
   6  -3   1    6.66    0.93
   6  -3   1    5.75    0.89
   6  -3   1    6.68    1.07
   6  -3   1    7.11    1.07
   6  -3   1    6.92    0.89
  -6   3  -1    6.73    0.89
   6  -3   1    6.93    0.97
   6  -3   1    7.60    0.98
   6  -3   2   37.60    1.90
   6  -3   2   39.20    2.27
   6  -3   2   39.63    2.26
   6  -3   2   38.23    2.01
   6  -3   2   41.57    2.09
   6  -3   2   41.58    2.16
   6  -3   3  734.18    9.20
  -6   3  -3  740.66    8.59
   6  -3   3  753.38    8.81
   6  -3   3  730.76    8.03
   6  -3   3  734.06    8.91
   6  -3   3  722.72    9.40
   6  -3   4    0.97    0.49
  -6   3  -4    0.42    0.40
   6  -3   4    0.04    0.37
   6  -3   4    0.24    0.40
   6  -3   4   -0.07    0.49
   6  -3   4   -0.07    0.48
   6  -3   5  204.91    4.06
  -6   3  -5  210.47    4.30
   6  -3   5  212.99    4.28
   6  -3   5  212.10    4.39
   6  -3   5  207.80    4.54
  -6   3  -6  332.18    4.89
   6  -3   6  329.19    4.80
  -6   3  -6  342.27    5.32
   6  -3   6  329.12    4.90
   6  -3   6  331.57    5.09
  -6   3  -7    3.86    0.52
   6  -3   7    4.38    0.54
  -6   3  -7    4.23    0.58
   6  -3   7    4.59    0.57
   6  -2 -10   50.75    1.38
   6  -2 -10   50.01    1.34
  -6   2  10   53.46    1.47
   6  -2  -9   96.71    2.37
   6  -2  -9   95.65    2.47
   6  -2  -9   95.38    2.39
  -6   2   9  100.06    2.63
  -6   2   9   92.43    2.36
   6  -2  -9   96.92    2.45
  -6   2   9   97.15    2.61
  -6   2   9   94.70    2.27
   6  -2  -8    1.23    0.49
   6  -2  -8    1.52    0.53
   6  -2  -8    0.56    0.49
   6  -2  -8    0.85    0.48
  -6   2   8    1.14    0.59
   6  -2  -8    0.83    0.42
  -6   2   8    0.92    0.51
  -6   2   8    1.49    0.49
  -6   2   7  117.51    3.25
   6  -2  -7  115.87    3.53
   6  -2  -7  112.35    3.30
   6  -2  -7  114.50    3.62
   6  -2  -7  120.52    3.54
   6  -2  -7  119.99    3.35
  -6   2   7  119.71    3.71
  -6   2   7  120.31    3.56
  -6   2   6   12.37    1.21
   6  -2  -6   10.74    1.21
   6  -2  -6   12.25    1.17
   6  -2  -6   10.99    1.26
   6  -2  -6   11.37    1.23
   6  -2  -6   11.09    1.09
  -6   2   6   11.57    1.26
   6  -2  -6   11.43    1.17
  -6   2   5   43.87    2.35
   6  -2  -5   45.37    2.43
   6  -2  -5   43.96    2.40
   6  -2  -5   43.01    2.30
   6  -2  -5   45.38    2.10
   6  -2  -5   44.85    2.37
   6  -2  -4   23.01    1.77
  -6   2   4   25.32    1.86
   6  -2  -4   23.59    1.75
   6  -2  -4   22.74    1.79
   6  -2  -4   23.58    1.80
   6  -2  -4   23.91    1.75
   6  -2  -4   24.66    1.67
   6  -2  -3    2.51    0.74
   6  -2  -3    3.69    0.76
   6  -2  -3    3.81    0.85
   6  -2  -3    2.65    0.71
   6  -2  -3    3.13    0.72
  -6   2   3    3.23    0.63
   6  -2  -3    3.67    0.75
   6  -2  -2   50.09    2.60
   6  -2  -2   48.99    2.38
   6  -2  -2   51.95    2.65
   6  -2  -2   57.07    2.54
   6  -2  -2   47.79    2.32
   6  -2  -2   50.34    2.61
   6  -2  -2   45.31    2.47
   6  -2  -2   51.59    2.51
   6  -2  -1    2.90    0.72
   6  -2  -1    3.74    0.76
   6  -2  -1    2.43    0.59
   6  -2  -1    2.99    0.74
   6  -2  -1    2.86    0.70
   6  -2  -1    3.00    0.74
   6  -2   0  319.66    6.29
   6  -2   0  325.02    6.29
   6  -2   0  317.97    6.58
   6  -2   0  321.78    6.55
   6  -2   0  308.80    5.68
   6  -2   0  311.00    6.01
   6  -2   0  323.34    6.30
   6  -2   1    2.14    0.64
   6  -2   1    2.63    0.78
   6  -2   1    3.12    0.63
   6  -2   1    2.22    0.62
   6  -2   1    2.55    0.72
   6  -2   1    1.97    0.62
   6  -2   1    2.95    0.61
   6  -2   2    0.71    0.57
   6  -2   2    0.36    0.44
   6  -2   2    0.42    0.50
   6  -2   2    0.27    0.42
   6  -2   2    0.93    0.46
   6  -2   2    0.26    0.50
   6  -2   3  685.77    9.24
   6  -2   3  680.80    9.29
   6  -2   3  711.98    9.19
   6  -2   3  706.67    8.47
   6  -2   3  723.19    9.18
   6  -2   3  684.62    9.71
   6  -2   4  325.26    6.06
   6  -2   4  323.99    6.14
   6  -2   4  332.85    6.29
   6  -2   4  325.59    6.20
   6  -2   4  320.43    6.55
   6  -2   5   26.69    1.66
   6  -2   5   25.47    1.65
   6  -2   5   26.89    1.77
   6  -2   5   24.85    1.73
   6  -2   5   26.41    1.88
   6  -2   6  312.65    5.58
  -6   2  -6  314.06    5.34
   6  -2   6  306.26    5.78
  -6   2  -7    8.34    0.96
   6  -2   7   11.20    1.01
  -6   2  -7   10.19    0.92
   6  -2   7    9.58    0.99
   6  -2   7    9.66    1.00
  -6   2  -8  136.38    2.92
   6  -2   8  133.97    2.64
  -6   2  -8  132.25    2.65
   6  -2   8  138.11    2.84
   6  -2   8  128.94    2.74
   6  -1 -10  103.97    2.27
  -6   1  10   99.51    2.26
  -6   1  10   95.46    2.03
   6  -1 -10  103.14    2.22
  -6   1  10  100.61    2.14
   6  -1  -9    4.34    0.60
   6  -1  -9    3.62    0.65
   6  -1  -9    4.17    0.58
  -6   1   9    3.89    0.68
  -6   1   9    4.21    0.69
   6  -1  -9    3.71    0.64
  -6   1   9    4.82    0.70
  -6   1   9    4.72    0.61
   6  -1  -8   15.90    1.25
   6  -1  -8   16.25    1.32
   6  -1  -8   15.34    1.22
  -6   1   8   17.33    1.43
   6  -1  -8   16.67    1.33
  -6   1   8   16.70    1.35
  -6   1   8   16.41    1.18
   6  -1  -7   60.17    2.64
   6  -1  -7   57.90    2.58
   6  -1  -7   60.76    2.74
   6  -1  -7   58.13    2.56
   6  -1  -7   59.16    2.58
  -6   1   7   58.86    2.66
  -6   1   7   62.51    2.54
   6  -1  -6  185.50    4.89
   6  -1  -6  190.05    4.74
   6  -1  -6  194.06    5.06
   6  -1  -6  192.57    4.86
   6  -1  -6  192.04    4.74
  -6   1   6  200.59    4.89
   6  -1  -5   68.75    3.02
   6  -1  -5   62.90    2.71
   6  -1  -5   66.90    3.02
   6  -1  -5   71.71    3.01
   6  -1  -5   67.10    2.81
   6  -1  -5   67.16    2.57
   6  -1  -5   64.37    2.87
   6  -1  -4  289.88    6.11
  -6   1   4  293.04    5.93
   6  -1  -4  291.09    6.19
   6  -1  -4  279.24    5.91
   6  -1  -4  288.01    5.57
   6  -1  -4  284.35    6.14
   6  -1  -3   13.64    1.41
   6  -1  -3   15.81    1.45
   6  -1  -3   15.50    1.51
   6  -1  -3   14.70    1.41
   6  -1  -3   15.31    1.42
  -6   1   3   16.64    2.43
   6  -1  -3   14.40    1.32
  -6   1   3   12.78    2.20
   6  -1  -2  210.70    5.25
   6  -1  -2  209.55    4.91
   6  -1  -2  215.13    5.24
   6  -1  -2  201.16    4.81
   6  -1  -2  233.68    9.28
   6  -1  -2  205.21    4.81
  -6   1   2  212.17    8.59
  -6   1   2  201.87    8.03
  -6   1   2  205.47    8.44
   6  -1  -2  212.85    4.97
   6  -1  -1  291.14    6.07
   6  -1  -1  280.44    5.44
   6  -1  -1  293.90    6.03
   6  -1  -1  304.54   10.31
   6  -1  -1  273.73    5.44
   6  -1  -1  283.61    6.11
   6  -1  -1  286.73    5.33
   6  -1  -1  288.80    5.83
  -6   1   1  297.59   10.20
   6  -1  -1  268.48    5.71
  -6   1   1  279.55    9.57
   6  -1  -1  308.08    6.03
   6  -1   0    0.20    0.42
   6  -1   0    0.72    0.45
   6  -1   0    0.41    0.34
   6  -1   0    1.70    0.81
   6  -1   0    0.65    0.41
   6  -1   0    0.30    0.35
  -6   1   0    0.24    0.47
  -6   1   0    0.82    0.78
   6  -1   0    0.91    0.45
   6  -1   1 1180.88   11.59
   6  -1   1 1162.25   12.23
   6  -1   1 1189.30   19.22
   6  -1   1 1198.57   12.42
   6  -1   1 1185.75   19.19
   6  -1   1 1208.38   11.67
   6  -1   1 1217.79   11.60
  -6   1  -1 1169.89   20.76
   6  -1   1 1226.75   11.80
   6  -1   2  140.90    4.21
   6  -1   2  138.19    4.18
   6  -1   2  145.19    4.14
   6  -1   2  138.33    3.90
  -6   1  -2  146.74    7.41
   6  -1   2  142.84    4.01
   6  -1   2  142.52    3.92
   6  -1   2  141.95    4.39
   6  -1   3  171.84    4.63
   6  -1   3  180.13    4.74
   6  -1   3  180.22    4.76
   6  -1   3  176.98    4.39
   6  -1   3  179.54    4.28
   6  -1   3  175.01    4.49
   6  -1   3  174.57    4.93
   6  -1   4  114.66    3.63
   6  -1   4  115.51    3.71
   6  -1   4  109.92    3.76
   6  -1   4  112.87    3.73
   6  -1   4  115.34    4.03
   6  -1   5   22.78    1.60
   6  -1   5   22.82    1.74
   6  -1   5   22.93    1.78
   6  -1   5   23.77    1.75
   6  -1   5   22.80    1.81
   6  -1   6   50.31    2.44
   6  -1   6   46.17    2.37
   6  -1   6   53.38    2.55
   6  -1   6   50.31    2.54
   6  -1   7  183.16    4.26
   6  -1   7  187.04    4.46
   6  -1   7  183.28    4.45
   6  -1   8    8.23    0.84
  -6   1  -8    7.36    0.90
   6  -1   8    8.95    0.97
   6  -1   8    8.17    0.89
   6  -1   9   48.93    1.49
   6  -1   9   49.50    1.74
   6  -1   9   49.29    1.58
   6   0 -10   69.48    1.94
  -6   0  10   68.93    1.90
  -6   0  10   65.27    1.83
   6   0 -10   69.49    1.89
   6   0  -9   29.61    1.62
   6   0  -9   28.86    1.33
   6   0  -9   28.31    1.26
  -6   0   9   31.33    1.65
  -6   0   9   29.84    1.58
   6   0  -9   30.45    1.63
  -6   0   9   30.33    1.51
  -6   0   9   28.67    1.46
   6   0  -8    1.40    0.56
   6   0  -8    1.34    0.60
   6   0  -8    1.02    0.42
   6   0  -8    0.82    0.44
  -6   0   8    0.70    0.57
   6   0  -8    1.19    0.58
  -6   0   8    0.94    0.54
   6   0  -7   41.25    2.23
   6   0  -7   44.52    2.36
   6   0  -7   41.72    1.98
   6   0  -7   43.15    2.20
   6   0  -7   43.23    2.33
  -6   0   7   46.26    2.33
   6   0  -6    1.36    0.60
   6   0  -6    1.56    0.57
   6   0  -6    1.94    0.74
   6   0  -6    1.81    0.66
   6   0  -6    1.56    0.62
  -6   0   6    1.40    0.58
   6   0  -5  684.97    9.53
   6   0  -5  698.07    9.27
   6   0  -5  706.58    9.76
   6   0  -5  700.02    9.42
   6   0  -5  705.41    9.39
   6   0  -4 1095.16   11.93
   6   0  -4 1060.71   19.33
   6   0  -4 1086.19   11.20
   6   0  -4 1099.18   11.98
   6   0  -4 1105.60   11.62
   6   0  -4 1090.71   11.26
  -6   0   4 1102.32   20.07
  -6   0   4 1102.00   19.95
   6   0  -4 1050.72   10.50
   6   0  -4 1077.15   11.75
   6   0  -3   13.14    1.32
   6   0  -3   14.98    1.41
   6   0  -3   13.81    2.15
   6   0  -3   13.72    1.31
   6   0  -3   14.25    2.33
   6   0  -3   13.07    1.22
  -6   0   3   16.66    2.50
  -6   0   3   15.07    2.35
   6   0  -3   14.40    1.29
   6   0  -3   15.89    1.46
   6   0  -2   62.49    2.69
   6   0  -2   59.02    2.72
   6   0  -2   57.23    2.55
   6   0  -2   65.72    4.83
   6   0  -2   59.64    2.61
   6   0  -2   57.80    2.65
  -6   0   2   60.78    4.38
  -6   0   2   60.97    4.39
   6   0  -2   60.51    2.60
   6   0  -2   59.72    2.76
   6   0  -1 1553.17   13.55
   6   0  -1 1517.59   13.46
  -6   0   1 1564.82   20.99
  -6   0   1 1597.93   21.20
   6   0  -1 1641.87   13.36
   6   0   0   10.07    1.84
   6   0   0    7.92    1.51
  -6   0   0    8.32    1.71
   6   0   1   27.09    2.88
   6   0   1   25.93    1.71
   6   0   1   26.03    2.89
   6   0   1   24.62    1.69
  -6   0  -1   22.78    2.78
   6   0   2  314.11    9.60
   6   0   2  310.41    6.08
   6   0   2  313.61   10.24
   6   0   2  317.47    6.02
   6   0   2  303.55    5.99
   6   0   2  318.75    5.98
  -6   0  -2  321.80   10.34
   6   0   2  316.28    5.68
   6   0   2  304.27    6.24
   6   0   3  161.10    4.35
   6   0   3  165.38    4.44
   6   0   3  158.38    4.43
   6   0   3  160.64    4.33
  -6   0  -3  174.81    7.77
   6   0   3  159.97    3.96
   6   0   3  161.22    4.12
   6   0   3  161.04    4.61
   6   0   4 1293.20   12.08
   6   0   4 1316.01   22.71
   6   0   4 1431.29   13.28
  -6   0  -4 1395.74   23.68
   6   0   4 1320.75   13.26
   6   0   4 1359.05   12.68
  -6   0  -4 1398.82   22.33
   6   0   4 1375.35   12.64
   6   0   4 1364.75   13.49
   6   0   5   -0.09    0.40
   6   0   5    0.09    0.46
   6   0   5    0.42    0.39
   6   0   5    1.14    0.48
   6   0   5    0.17    0.40
   6   0   5    0.29    0.40
   6   0   6   20.80    1.65
   6   0   6   22.00    1.83
   6   0   6   22.13    1.62
   6   0   6   21.13    1.65
   6   0   6   20.71    1.66
   6   0   6   20.50    1.67
   6   0   7  101.12    3.36
   6   0   7  100.69    3.73
   6   0   7  104.33    3.31
   6   0   7   98.49    3.27
   6   0   7  103.44    3.55
   6   0   7  106.17    3.53
   6   0   8   56.09    2.26
  -6   0  -8   59.30    2.27
   6   0   8   53.48    2.55
   6   0   8   58.26    2.22
   6   0   8   57.48    2.52
   6   0   8   55.30    2.32
   6   0   9   19.74    1.12
  -6   0  -9   19.25    1.17
   6   0   9   20.25    1.34
   6   0   9   17.33    1.10
  -6   0 -10   32.08    1.42
   6   0  10   31.63    1.33
   6   1 -10    1.29    0.37
  -6  -1  10    2.04    0.38
  -6  -1  10    2.12    0.44
   6   1 -10    2.47    0.44
   6   1 -10    2.04    0.42
   6   1  -9    4.56    0.72
   6   1  -9    4.54    0.65
   6   1  -9    4.72    0.63
  -6  -1   9    4.84    0.71
  -6  -1   9    4.70    0.73
   6   1  -9    4.68    0.72
   6   1  -9    4.81    0.64
  -6  -1   9    4.40    0.58
  -6  -1   9    6.88    0.88
   6   1  -8  246.63    5.20
   6   1  -8  244.06    4.71
   6   1  -8  245.04    4.58
  -6  -1   8  259.45    5.16
  -6  -1   8  248.23    5.10
   6   1  -8  257.71    5.27
   6   1  -8  257.93    4.70
  -6  -1   8  256.95    4.74
   6   1  -7  113.13    3.56
   6   1  -7  119.07    3.87
   6   1  -7  114.63    3.48
   6   1  -7  113.42    3.37
   6   1  -7  116.23    3.40
  -6  -1   7  121.98    3.87
   6   1  -7  115.79    3.82
   6   1  -7  114.01    3.39
  -6  -1   7  119.59    3.57
   6   1  -6   43.93    2.39
   6   1  -6   42.09    2.40
   6   1  -6   39.89    2.16
   6   1  -6   41.54    2.38
  -6  -1   6   45.28    2.33
   6   1  -5  192.24    5.03
   6   1  -5  193.00    4.99
   6   1  -5  189.45    4.55
   6   1  -5  188.82    5.06
   6   1  -5  192.92    4.83
   6   1  -5  194.80    5.03
   6   1  -4   41.09    2.32
   6   1  -4   46.35    3.98
   6   1  -4   40.30    2.27
   6   1  -4   40.84    2.08
   6   1  -4   44.21    2.45
   6   1  -4   44.29    4.01
   6   1  -4   39.86    2.20
   6   1  -4   42.07    2.32
  -6  -1   4   41.74    3.99
   6   1  -4   41.52    2.10
   6   1  -3  226.06    5.31
   6   1  -3  234.36    8.47
   6   1  -3  226.80    4.99
   6   1  -3  232.95    5.35
   6   1  -3  229.37    5.17
   6   1  -3  225.46    4.75
   6   1  -3  230.36    5.11
  -6  -1   3  250.37    9.17
  -6  -1   3  230.06    8.55
   6   1  -3  229.42    4.92
   6   1  -2    3.26    0.98
   6   1  -2    3.64    0.68
   6   1  -2    4.11    1.37
   6   1  -2    3.71    0.72
  -6  -1   2    2.66    1.09
  -6  -1   2    6.08    1.51
   6   1  -1   38.59    3.52
   6   1  -1   32.62    2.86
  -6  -1   1   31.51    3.00
   6   1   0   32.59    3.21
   6   1   0   30.38    2.99
  -6  -1   0   30.79    2.79
   6   1   1   90.89    5.25
   6   1   1   86.18    5.10
  -6  -1  -1   85.52    5.02
   6   1   2  812.34   15.41
   6   1   2  786.63   15.90
  -6  -1  -2  798.55   15.33
   6   1   3  244.44    8.34
   6   1   3  226.76    5.10
   6   1   3  231.26    8.93
   6   1   3  234.94    5.20
  -6  -1  -3  238.17    8.49
   6   1   4    7.99    1.63
   6   1   4    7.10    0.97
   6   1   4    7.34    1.02
   6   1   4    6.57    0.96
   6   1   4    5.76    1.51
  -6  -1  -4    7.08    1.78
  -6  -1  -4    6.63    1.69
   6   1   4    6.61    0.93
   6   1   4    6.42    0.87
   6   1   4    6.09    0.91
   6   1   5   77.64    5.61
   6   1   5   83.14    3.21
   6   1   5   81.58    3.32
  -6  -1  -5   75.78    5.49
   6   1   5   80.30    3.36
   6   1   5   83.78    3.24
  -6  -1  -5   71.74    4.92
   6   1   5   86.93    3.31
  -6  -1  -5   79.99    5.80
   6   1   5   81.02    3.11
   6   1   5   81.49    3.24
   6   1   6  226.00    5.22
   6   1   6  238.09    5.71
   6   1   6  222.31    5.60
   6   1   6  232.40    5.44
   6   1   6  224.59    5.31
   6   1   6  214.59    5.18
   6   1   7  485.85    7.34
   6   1   7  483.05    8.03
   6   1   7  464.15    8.03
   6   1   7  482.42    7.83
   6   1   7  475.67    7.36
   6   1   8   26.96    1.62
   6   1   8   25.76    1.87
   6   1   8   24.50    1.68
   6   1   8   25.16    1.78
   6   1   9    4.23    0.80
   6   1   9    3.84    0.66
   6   1   9    3.80    0.74
  -6  -1  -9    3.77    0.62
  -6  -1 -10   67.63    2.12
   6   1  10   71.54    2.06
   6   1  10   70.13    2.30
  -6  -1 -11    1.21    0.38
   6   1  11    1.19    0.34
   6   2 -10   84.32    1.78
  -6  -2  10   81.20    1.68
   6   2  -9  114.30    2.79
   6   2  -9  111.51    2.71
  -6  -2   9  110.53    2.56
  -6  -2   9  113.38    2.86
   6   2  -9  112.79    2.81
   6   2  -9  108.48    2.68
  -6  -2   9  111.75    2.81
   6   2  -9  113.04    2.84
   6   2  -8   30.90    1.85
   6   2  -8   33.93    1.81
   6   2  -8   31.94    1.74
  -6  -2   8   31.17    1.69
  -6  -2   8   32.39    1.82
   6   2  -8   31.36    1.80
   6   2  -8   33.65    1.79
   6   2  -7  163.36    4.53
   6   2  -7  170.57    4.37
   6   2  -7  176.07    4.39
  -6  -2   7  176.73    4.40
  -6  -2   7  171.31    4.46
   6   2  -7  170.40    4.57
   6   2  -7  169.91    4.29
   6   2  -6   40.75    2.39
   6   2  -6   42.05    2.27
   6   2  -6   41.66    2.24
   6   2  -6   42.10    2.08
  -6  -2   6   43.93    2.35
   6   2  -6   43.61    2.46
   6   2  -6   47.85    2.40
   6   2  -5 1604.53   14.31
   6   2  -5 1617.84   14.71
   6   2  -5 1607.17   13.83
   6   2  -5 1616.90   13.88
   6   2  -5 1596.38   13.35
   6   2  -5 1592.09   14.64
   6   2  -5 1656.27   13.75
   6   2  -4   41.76    2.34
   6   2  -4   38.84    3.65
   6   2  -4   42.65    2.33
   6   2  -4   47.33    2.35
   6   2  -4   43.00    2.22
   6   2  -4   43.13    2.23
   6   2  -4   41.54    2.35
  -6  -2   4   38.43    3.76
   6   2  -4   42.05    2.10
   6   2  -3   85.28    3.26
   6   2  -3   92.10    5.19
   6   2  -3   87.18    3.22
   6   2  -3   85.31    3.04
   6   2  -3   92.60    5.47
   6   2  -3   84.24    3.09
   6   2  -3   84.50    3.01
   6   2  -3   87.16    3.24
  -6  -2   3   91.24    5.61
   6   2  -3   84.86    3.00
   6   2  -2  345.83   10.44
  -6  -2   2  330.63   10.21
   6   2  -1   40.15    3.54
   6   2  -1   39.56    3.27
  -6  -2   1   40.31    3.51
   6   2   0  374.46   10.55
   6   2   0  378.03   10.32
   6   2   0  358.73   10.23
  -6  -2   0  355.52    9.74
   6   2   1    2.45    1.08
   6   2   1    0.79    0.69
   6   2   1    1.30    0.78
  -6  -2  -1    0.63    0.60
   6   2   2  424.87   11.20
   6   2   2  421.48   11.56
   6   2   2  394.76   11.26
  -6  -2  -2  408.94   10.39
   6   2   3  484.82   11.83
   6   2   3  485.14   12.81
  -6  -2  -3  480.97   11.30
   6   2   4   57.92    4.16
   6   2   4   56.85    2.54
   6   2   4   55.99    4.54
   6   2   4   56.51    2.65
   6   2   4   55.14    2.59
  -6  -2  -4   52.17    4.37
   6   2   4   55.76    2.53
   6   2   5  339.33    5.78
   6   2   5  352.49    6.38
   6   2   5  361.30   11.80
   6   2   5  357.02    6.77
  -6  -2  -5  361.92   11.22
   6   2   5  342.03    6.70
   6   2   5  363.77    6.84
  -6  -2  -5  352.97   11.76
   6   2   5  363.16    6.78
   6   2   5  353.81    6.32
   6   2   6   13.08    1.26
   6   2   6   13.52    1.38
   6   2   6   11.59    1.29
   6   2   6   13.42    1.37
   6   2   6   13.21    1.36
   6   2   6   13.48    1.33
   6   2   7   50.92    2.34
   6   2   7   57.21    2.79
   6   2   7   50.75    2.65
   6   2   7   52.70    2.68
   6   2   7   55.00    2.75
   6   2   7   52.40    2.60
   6   2   8  106.59    3.64
   6   2   8   97.14    3.54
   6   2   8  109.00    3.72
   6   2   8  104.03    3.63
   6   2   9    3.69    0.77
   6   2   9    4.00    0.75
   6   2   9    4.90    0.83
   6   2   9    4.41    0.85
   6   2  10  234.99    4.43
   6   2  10  228.27    4.51
  -6  -2 -10  232.48    4.20
  -6  -2 -11   26.63    1.23
   6   2  11   27.68    1.21
   6   2  11   28.51    1.31
  -6  -2 -11   26.49    1.11
  -6  -3   9   32.57    1.37
   6   3  -9   37.00    1.49
   6   3  -9   36.91    1.51
  -6  -3   9   35.92    1.43
   6   3  -9   33.80    1.45
  -6  -3   9   34.70    1.46
   6   3  -9   37.26    1.50
   6   3  -8    2.57    0.62
   6   3  -8    3.74    0.71
  -6  -3   8    2.69    0.61
   6   3  -8    2.38    0.58
   6   3  -8    2.43    0.62
  -6  -3   8    3.15    0.84
   6   3  -8    3.79    0.71
   6   3  -7  139.22    3.87
   6   3  -7  138.85    3.94
  -6  -3   7  140.35    3.84
   6   3  -7  140.14    3.97
   6   3  -7  141.71    3.98
   6   3  -6    4.68    0.94
   6   3  -6    5.53    0.94
   6   3  -6    5.28    0.91
  -6  -3   6    4.57    0.83
   6   3  -6    7.03    1.02
   6   3  -6    5.40    0.90
   6   3  -5   43.95    2.49
   6   3  -5   44.76    2.42
   6   3  -5   46.40    2.48
   6   3  -5   46.15    2.53
   6   3  -5   48.48    2.48
   6   3  -4  432.14    7.56
   6   3  -4  446.38    7.38
   6   3  -4  437.15    7.41
   6   3  -4  438.41    6.75
   6   3  -4  447.55    7.69
   6   3  -4  441.56    7.39
   6   3  -4  417.70    6.59
   6   3  -3  260.01    5.69
   6   3  -3  262.47    5.52
   6   3  -3  264.95    5.59
   6   3  -3  262.84    5.27
   6   3  -3  276.89    5.68
  -6  -3   3  246.37    9.17
   6   3  -3  270.76    5.83
   6   3  -3  264.40    5.46
  -6  -3   3  272.34    9.85
   6   3  -3  253.20    5.24
   6   3  -2   91.69    3.26
   6   3  -2   92.37    3.18
   6   3  -2   97.47    5.42
   6   3  -2   95.58    3.18
  -6  -3   2   94.14    5.37
   6   3  -2   96.72    3.29
   6   3  -2   94.23    3.36
  -6  -3   2   95.69    5.66
   6   3  -2   92.86    3.15
   6   3  -1  211.51    7.96
   6   3  -1  218.18    7.88
  -6  -3   1  214.53    8.11
   6   3   0  414.44   11.10
   6   3   0  408.70   10.97
  -6  -3   0  395.45   10.59
   6   3   1  711.36   14.54
   6   3   1  694.90   14.59
   6   3   1  671.72   14.62
  -6  -3  -1  683.60   13.38
   6   3   2   71.55    4.69
   6   3   2   87.23    5.32
   6   3   2   78.32    5.07
  -6  -3  -2   83.19    4.51
  -6  -3  -2   85.22    4.57
  -6  -3  -3  514.85   12.37
   6   3   3  535.99   13.40
   6   3   3  523.12   13.44
  -6  -3  -3  535.01   12.01
  -6  -3  -3  522.25   12.39
   6   3   4  102.03    5.66
  -6  -3  -4   89.22    5.53
   6   3   4   82.74    2.98
   6   3   4   87.94    5.56
   6   3   4   88.29    5.69
   6   3   4   88.47    3.27
   6   3   4   90.42    3.31
  -6  -3  -4   92.71    5.57
   6   3   4   88.58    3.22
   6   3   5   39.42    2.06
  -6  -3  -5   35.76    3.75
   6   3   5   41.09    2.18
   6   3   5   38.04    2.04
   6   3   5   39.58    3.90
   6   3   5   43.87    2.38
   6   3   5   40.88    2.32
  -6  -3  -5   36.14    3.78
   6   3   5   39.96    2.27
   6   3   5   40.13    2.10
   6   3   6  220.11    4.85
  -6  -3  -6  197.34    9.10
   6   3   6  213.36    4.83
   6   3   6  200.00    4.57
   6   3   6  212.65    9.10
   6   3   6  210.59    5.31
   6   3   6  210.36    5.34
   6   3   6  215.27    5.32
   6   3   6  210.12    5.02
   6   3   7    5.40    0.95
   6   3   7    3.79    0.74
   6   3   7    5.39    0.94
   6   3   7    4.38    0.86
   6   3   7    4.39    0.84
   6   3   8  225.41    5.35
   6   3   8  221.04    5.42
   6   3   8  219.36    5.35
   6   3   8  214.52    5.19
   6   3   9  141.15    3.93
   6   3   9  142.43    4.13
   6   3   9  141.88    4.06
   6   3  10   41.74    1.86
   6   3  10   43.06    2.09
   6   3  10   44.90    2.11
   6   3  11  212.31    3.76
   6   3  11  210.53    3.78
  -6  -3 -11  213.60    3.64
   6   4  -9  293.94    3.51
  -6  -4   9  286.41    3.35
   6   4  -9  291.70    3.32
  -6  -4   8    0.66    0.43
   6   4  -8    1.29    0.48
   6   4  -8    1.52    0.56
  -6  -4   8    1.55    0.42
   6   4  -8    1.12    0.53
  -6  -4   8   -0.08    0.51
   6   4  -8    1.24    0.46
   6   4  -7   49.99    2.21
   6   4  -7   47.87    2.26
  -6  -4   7   49.06    2.04
   6   4  -7   48.71    2.16
   6   4  -7   47.02    2.24
  -6  -4   7   49.88    2.23
   6   4  -7   46.67    2.15
   6   4  -6  119.15    3.72
   6   4  -6  120.48    3.85
  -6  -4   6  125.20    3.52
   6   4  -6  123.69    3.80
   6   4  -6  119.39    3.83
  -6  -4   6  125.44    3.76
   6   4  -6  121.07    3.73
   6   4  -5   14.87    1.44
   6   4  -5   13.72    1.43
  -6  -4   5   15.04    1.33
   6   4  -5   15.84    1.51
   6   4  -5   19.17    1.66
   6   4  -5   14.71    1.39
   6   4  -4  315.82    6.30
   6   4  -4  314.20    6.47
   6   4  -4  299.54    6.32
   6   4  -4  309.72    6.39
   6   4  -4  307.94    5.66
   6   4  -4  290.79    5.98
   6   4  -3    0.93    0.44
   6   4  -3    0.62    0.50
   6   4  -3    1.00    0.55
   6   4  -3    0.59    0.43
   6   4  -3    0.84    0.59
   6   4  -3    0.51    0.39
  -6  -4   2    2.30    1.20
   6   4  -2    3.02    0.70
   6   4  -2    1.62    0.55
   6   4  -2    3.48    0.76
   6   4  -2    1.55    0.59
   6   4  -2    3.82    0.78
   6   4  -2    1.15    0.50
  -6  -4   2    2.01    1.03
   6   4  -2    1.90    0.54
  -6  -4   1  175.96    7.53
   6   4  -1  197.80    4.69
   6   4  -1  201.09    7.67
   6   4  -1  182.25    4.65
   6   4  -1  176.92    4.27
   6   4  -1  200.34    7.96
   6   4  -1  191.02    4.71
   6   4  -1  182.33    4.64
  -6  -4   1  185.80    7.82
   6   4  -1  182.83    4.48
   6   4   0   22.68    2.64
   6   4   0   24.16    2.85
   6   4   0   22.08    1.60
  -6  -4   0   24.63    2.80
   6   4   0   18.40    1.44
  -6  -4   0   23.11    2.65
   6   4   1   34.87    3.29
   6   4   1   40.06    3.66
  -6  -4  -1   32.38    3.07
   6   4   2  754.40   15.31
   6   4   2  793.95   16.36
   6   4   3  399.11    6.55
  -6  -4  -3  414.47   11.02
   6   4   3  408.66   12.08
  -6  -4  -3  409.33   11.25
   6   4   4  673.46    8.56
  -6  -4  -4  655.60   14.89
   6   4   4  657.60    8.48
   6   4   4  719.43   16.01
   6   4   4  632.99    8.04
   6   4   4  688.03    9.15
   6   4   4  687.37   15.86
   6   4   4  664.22    8.81
  -6  -4  -4  669.89   14.91
  -6  -4  -4  632.46   14.13
   6   4   4  682.10    9.06
   6   4   5  223.88    5.07
  -6  -4  -5  218.79    9.08
   6   4   5  240.04    5.27
   6   4   5  250.69    9.56
   6   4   5  237.61    5.58
   6   4   5  246.64    9.64
   6   4   5  237.37    5.45
  -6  -4  -5  229.90    9.13
   6   4   5  240.37    5.54
   6   4   6  126.74    3.87
   6   4   6  124.51    3.96
   6   4   6  122.02    4.09
   6   4   6  117.51    3.96
  -6  -4  -6  114.11    6.79
   6   4   6  118.08    3.95
   6   4   6  116.88    3.73
   6   4   6  108.58    3.71
   6   4   7  118.51    4.02
   6   4   7  115.19    3.99
   6   4   7  116.93    3.96
   6   4   7  110.39    3.72
   6   4   7  104.50    3.73
   6   4   8   37.27    2.23
   6   4   8   33.60    2.18
   6   4   8   35.61    2.17
   6   4   8   36.00    2.15
   6   4   8   33.36    2.17
   6   4   9  157.86    4.22
   6   4   9  155.66    4.37
   6   4   9  160.69    4.28
   6   4   9  155.31    4.26
   6   4   9  149.51    4.27
   6   4  10   47.44    2.03
   6   4  10   48.65    2.25
   6   4  10   47.14    2.18
   6   4  11   29.57    1.50
  -6  -4 -11   27.15    1.18
   6   4  11   29.04    1.48
   6   4  12   64.73    1.58
   6   4  12   61.92    1.55
  -6  -5   8   21.27    1.06
   6   5  -8   21.95    0.98
   6   5  -8   21.63    1.11
  -6  -5   8   23.15    1.08
   6   5  -8   21.92    1.04
  -6  -5   8   21.43    0.98
  -6  -5   7    9.15    0.91
   6   5  -7    8.07    0.84
   6   5  -7    7.51    0.88
   6   5  -7    7.88    0.90
  -6  -5   7    6.66    0.75
   6   5  -7    8.87    0.90
  -6  -5   6   49.69    2.25
   6   5  -6   48.78    2.19
   6   5  -6   48.15    2.33
   6   5  -6   49.89    2.36
  -6  -5   6   49.41    2.16
   6   5  -6   50.01    2.26
   6   5  -6   49.01    2.00
   6   5  -5    2.48    0.65
   6   5  -5    1.82    0.68
   6   5  -5    1.75    0.52
   6   5  -5    2.88    0.75
  -6  -5   5    2.33    0.69
   6   5  -5    1.73    0.65
   6   5  -5    1.55    0.51
   6   5  -4   10.83    1.22
   6   5  -4   11.58    1.37
   6   5  -4   10.17    1.09
   6   5  -4   11.26    1.30
   6   5  -4   11.97    1.27
   6   5  -4   12.43    1.25
   6   5  -3   51.26    2.56
   6   5  -3   54.11    2.74
   6   5  -3   52.45    2.47
   6   5  -3   52.32    2.69
   6   5  -3   51.11    2.52
   6   5  -3   54.21    2.60
   6   5  -2   29.01    1.93
   6   5  -2   29.45    2.01
   6   5  -2   29.15    2.01
   6   5  -2   30.85    1.90
   6   5  -2   30.41    1.96
  -6  -5   1  131.70    6.91
   6   5  -1  140.55    4.12
   6   5  -1  137.24    4.25
   6   5  -1  150.98    7.35
  -6  -5   1  133.83    6.96
  -6  -5   1  131.28    6.71
   6   5  -1  149.10    4.17
   6   5  -1  140.94    3.89
   6   5  -1  147.11    4.19
   6   5   0   22.65    2.09
   6   5   0   26.09    1.95
   6   5   0   43.21    2.39
   6   5   0   15.21    1.61
   6   5   0    4.64    1.42
  -6  -5   0    4.46    1.37
   6   5   0   22.59    1.84
  -6  -5   0    4.08    1.27
   6   5   0    4.57    0.81
   6   5   0   20.99    1.58
   6   5   0    5.31    0.90
   6   5   1  160.90    4.31
   6   5   1  155.85    4.05
   6   5   1  153.99    4.21
   6   5   1  176.49    7.98
  -6  -5  -1  154.23    7.20
  -6  -5  -1  152.23    7.04
   6   5   1  160.20    4.29
   6   5   1  151.00    4.06
   6   5   1  154.70    4.29
   6   5   2   32.21    1.96
   6   5   2   30.39    1.86
   6   5   2   40.24    3.91
   6   5   2   34.32    1.98
   6   5   2   36.03    2.06
  -6  -5  -2   39.53    3.62
  -6  -5  -2   27.22    2.97
   6   5   2   34.53    2.06
   6   5   2   33.88    1.92
   6   5   3   29.05    1.85
   6   5   3   32.27    1.96
   6   5   3   35.49    3.72
   6   5   3   30.65    1.83
   6   5   3   31.77    1.99
  -6  -5  -3   28.27    3.24
   6   5   3   29.87    1.96
   6   5   3   30.10    1.77
   6   5   4   84.99    3.18
   6   5   4   96.31    3.39
  -6  -5  -4   85.03    5.52
   6   5   4   84.28    5.67
   6   5   4   86.94    3.37
   6   5   4   85.08    3.12
  -6  -5  -4   85.41    5.68
   6   5   4   88.33    3.39
   6   5   5  290.39    5.93
   6   5   5  302.41    6.03
  -6  -5  -5  257.03   10.03
   6   5   5  285.82    6.23
   6   5   5  271.81    5.72
  -6  -5  -5  271.79   10.31
   6   5   5  285.25    6.11
   6   5   6  347.47    6.52
   6   5   6  332.96    6.42
   6   5   6  350.83    6.94
   6   5   6  352.46    6.64
   6   5   6  344.48    6.80
   6   5   6  341.56    6.28
   6   5   7  183.85    4.78
   6   5   7  173.78    4.89
   6   5   7  172.52    4.69
   6   5   7  168.23    4.73
   6   5   7  171.60    4.58
   6   5   8   60.46    2.80
   6   5   8   63.69    2.83
   6   5   8   66.98    2.91
   6   5   8   60.41    2.74
   6   5   8   64.00    2.74
   6   5   9  116.04    3.58
   6   5   9  116.21    3.63
   6   5   9  115.46    3.55
   6   5   9  115.80    3.59
   6   5   9  106.06    3.41
   6   5  10  764.78    7.94
   6   5  10  759.57    8.40
   6   5  10  759.73    8.40
   6   5  11   19.22    1.18
  -6  -5 -11   17.68    1.03
   6   5  11   18.43    1.17
   6   5  12    8.88    0.64
  -6  -5 -12    9.71    0.65
  -6  -6   7   10.61    0.78
   6   6  -7    9.20    0.61
   6   6  -7   10.29    0.79
  -6  -6   7    8.76    0.71
  -6  -6   7    9.90    0.73
   6   6  -7   10.93    0.78
  -6  -6   6    2.66    0.57
   6   6  -6    2.65    0.50
   6   6  -6    2.07    0.59
   6   6  -6    2.29    0.53
  -6  -6   6    2.10    0.42
   6   6  -6    3.06    0.60
   6   6  -6    3.03    0.57
  -6  -6   5    8.81    0.96
   6   6  -5    8.78    0.94
   6   6  -5    7.75    0.99
   6   6  -5    8.76    0.94
   6   6  -5    8.41    0.98
  -6  -6   5    8.13    0.83
   6   6  -5    8.69    0.97
  -6  -6   4    1.20    0.50
   6   6  -4    1.05    0.63
   6   6  -4    1.49    0.56
   6   6  -4    1.67    0.57
   6   6  -4    1.48    0.57
   6   6  -3  147.09    4.15
   6   6  -3  153.94    4.52
   6   6  -3  151.34    4.24
   6   6  -3  149.48    4.21
   6   6  -3  148.77    4.30
   6   6  -2  101.85    3.51
   6   6  -2   97.26    3.67
   6   6  -2  103.04    3.56
   6   6  -2  100.31    3.31
   6   6  -2   95.80    3.37
   6   6  -2   98.93    3.60
   6   6  -1  463.41    7.47
   6   6  -1  461.55    7.91
   6   6  -1  455.72    7.56
   6   6  -1  462.01    7.41
   6   6  -1  465.60    7.29
   6   6  -1  464.91    7.81
   6   6   0    5.02    0.88
   6   6   0    5.32    0.86
   6   6   0    5.82    0.94
   6   6   0    5.33    0.81
   6   6   0    4.81    0.89
   6   6   1  139.62    4.10
   6   6   1  139.20    3.80
   6   6   1  140.61    4.18
  -6  -6  -1  124.10    6.84
   6   6   1  155.34    4.28
   6   6   1  142.19    4.25
   6   6   1  134.08    3.70
   6   6   1  140.65    4.31
   6   6   2   69.12    2.89
   6   6   2   78.07    2.99
   6   6   2   69.47    3.04
   6   6   2   68.83    2.92
  -6  -6  -2   70.19    5.29
  -6  -6  -2   66.60    4.97
   6   6   2   70.01    3.01
   6   6   2   68.21    3.02
   6   6   3   16.25    1.43
   6   6   3   16.79    1.56
   6   6   3   18.08    1.57
  -6  -6  -3   17.86    2.58
   6   6   3   16.53    1.51
   6   6   4  323.86    6.28
   6   6   4  329.20    6.28
   6   6   4  321.62    6.64
   6   6   4  316.30    6.32
   6   6   4  322.83    6.55
   6   6   5  168.31    4.59
   6   6   5  169.50    4.66
   6   6   5  173.29    4.92
   6   6   5  165.84    4.75
   6   6   5  174.51    4.85
   6   6   6  464.42    7.61
   6   6   6  474.55    8.18
   6   6   6  469.23    7.90
   6   6   7  126.53    4.13
   6   6   7  125.36    3.71
   6   6   7  122.06    4.00
   6   6   7  126.98    4.04
   6   6   7  121.67    3.76
   6   6   8  239.91    5.44
   6   6   8  234.55    4.99
   6   6   8  242.07    5.29
   6   6   8  234.89    5.13
   6   6   9    6.15    0.91
   6   6   9    6.50    0.83
   6   6   9    5.35    0.83
   6   6   9    5.62    0.86
   6   6  10   16.97    1.19
   6   6  10   18.15    1.19
   6   6  10   16.06    1.12
   6   6  10   16.07    1.23
  -6  -6 -11    0.55    0.30
   6   6  11    0.47    0.33
   6   6  11    0.65    0.41
  -6  -7   6   53.70    1.53
  -6  -7   6   54.52    1.43
  -6  -7   6   53.08    1.53
  -6  -7   6   55.39    1.52
   6   7  -6   57.82    1.61
  -6  -7   5  126.53    2.73
   6   7  -5  121.83    2.44
  -6  -7   5  128.86    2.96
   6   7  -5  121.18    2.84
  -6  -7   5  126.20    2.80
   6   7  -5  128.24    2.98
   6   7  -5  123.51    2.92
  -6  -7   4   12.32    1.00
   6   7  -4   12.56    0.99
   6   7  -4   11.71    1.13
   6   7  -4   13.40    1.17
  -6  -7   4   13.30    1.06
   6   7  -4   13.50    1.17
   6   7  -4   11.32    1.09
  -6  -7   3   85.28    2.66
   6   7  -3   83.67    2.75
   6   7  -3   91.68    3.20
  -6  -7   3   90.79    3.05
   6   7  -3   84.25    3.02
  -6  -7   3   83.69    2.71
   6   7  -3   87.59    2.72
   6   7  -3   83.81    2.94
   6   7  -3   84.82    3.09
   6   7  -2   20.50    1.49
   6   7  -2   20.02    1.62
  -6  -7   2   22.93    1.46
   6   7  -2   19.43    1.48
   6   7  -2   19.88    1.53
   6   7  -2   20.10    1.65
   6   7  -1   37.73    2.06
   6   7  -1   37.18    2.20
   6   7  -1   39.92    2.20
   6   7  -1   36.10    2.05
   6   7  -1   36.70    2.26
   6   7   0  147.48    4.11
   6   7   0  143.27    4.19
   6   7   0  148.82    4.34
   6   7   0  155.61    4.19
   6   7   0  147.99    4.50
   6   7   1   59.93    2.67
   6   7   1   58.11    2.79
   6   7   1   60.88    2.86
   6   7   1   63.81    2.65
   6   7   1   61.43    2.95
   6   7   2  459.75    7.36
   6   7   2  452.58    7.84
   6   7   2  450.68    7.52
   6   7   2  441.65    7.65
   6   7   2  463.58    6.91
   6   7   3  312.25    6.14
   6   7   3  305.92    6.57
   6   7   3  320.32    6.48
   6   7   3  308.82    6.46
   6   7   4  228.98    5.27
   6   7   4  228.58    5.70
   6   7   4  223.88    5.57
   6   7   4  228.21    5.28
   6   7   4  230.04    5.55
   6   7   5  202.67    4.96
   6   7   5  204.00    5.35
   6   7   5  196.95    5.06
   6   7   5  199.15    5.12
   6   7   6  256.80    5.59
   6   7   6  251.32    5.85
   6   7   6  237.17    5.64
   6   7   6  253.88    5.68
   6   7   7   85.59    3.34
   6   7   7   77.64    2.97
   6   7   7   83.25    3.13
   6   7   7   84.10    2.91
   6   7   8  255.87    5.38
   6   7   8  255.89    5.10
   6   7   8  254.50    4.94
   6   7   9  711.78    8.07
   6   7   9  693.43    7.41
   6   7   9  684.85    7.60
   6   7  10   18.25    1.11
   6   7  10   19.05    1.16
  -6  -7 -11    2.68    0.45
   6   7  11    3.96    0.50
  -6  -8   4   63.86    1.89
  -6  -8   4   61.93    1.75
  -6  -8   4   61.90    1.76
  -6  -8   4   58.85    1.61
   6   8  -4   65.47    1.92
   6   8  -4   63.39    1.98
  -6  -8   3  158.20    3.39
  -6  -8   3  155.45    3.15
  -6  -8   3  155.88    2.97
   6   8  -3  159.99    3.07
   6   8  -3  160.39    3.45
   6   8  -3  160.49    3.65
  -6  -8   2  107.72    3.02
   6   8  -2  103.87    2.57
  -6  -8   2  109.07    2.83
  -6  -8   2  105.82    2.61
   6   8  -2  111.58    3.05
   6   8  -2  110.78    3.12
   6   8  -2  109.68    3.34
   6   8  -1   21.93    1.34
  -6  -8   1   22.37    1.34
   6   8  -1   23.03    1.49
   6   8  -1   23.51    1.58
   6   8  -1   24.04    1.58
   6   8  -1   21.21    1.62
  -6  -8   0   62.32    2.40
   6   8   0   59.06    2.29
   6   8   0   62.13    2.47
   6   8   0   59.08    2.55
   6   8   0   59.34    2.62
   6   8   0   61.19    2.51
   6   8   0   62.65    2.82
   6   8   1   21.07    1.46
   6   8   1   23.13    1.63
   6   8   1   24.01    1.76
   6   8   1   22.93    1.75
   6   8   1   21.37    1.54
   6   8   1   20.00    1.70
   6   8   2   13.89    1.25
   6   8   2   16.36    1.37
   6   8   2   13.56    1.38
   6   8   2   14.09    1.25
   6   8   3  343.04    5.93
   6   8   3  347.80    6.78
   6   8   3  353.35    6.52
   6   8   3  347.98    6.64
   6   8   4  111.51    3.44
   6   8   4  112.78    3.91
   6   8   4  112.14    3.80
   6   8   4  110.03    3.47
   6   8   4  113.62    3.75
   6   8   5    0.86    0.58
   6   8   5    1.19    0.49
   6   8   5    0.97    0.58
   6   8   6   30.88    2.00
   6   8   6   28.29    1.91
   6   8   6   23.75    1.73
   6   8   6   27.19    1.76
   6   8   7  176.43    4.44
   6   8   7  169.90    4.06
   6   8   8  227.69    4.62
   6   8   8  218.82    4.14
   6   8   9    0.88    0.42
  -6  -8  -9    0.67    0.34
   6   8   9    0.80    0.33
   6   8   9    0.70    0.40
   6   8  10   91.49    1.98
   6   8  10   76.14    1.72
   6   9  -3   29.54    1.04
  -6  -9   2   90.54    2.07
  -6  -9   2   94.68    2.21
   6   9  -2   88.84    2.06
   6   9  -2   96.29    2.27
  -6  -9   1   50.18    1.69
  -6  -9   1   52.94    1.90
   6   9  -1   50.98    1.90
   6   9  -1   52.63    1.89
  -6  -9   0   87.54    2.29
  -6  -9   0   91.08    2.60
   6   9   0   89.73    2.62
   6   9   0   85.76    2.69
   6   9   0   88.78    2.59
  -6  -9  -1  134.55    3.23
   6   9   1  132.62    3.48
   6   9   1  129.56    3.49
   6   9   1  136.54    3.30
  -6  -9  -2  363.57    5.18
   6   9   2  364.85    6.08
   6   9   2  359.39    5.29
   6   9   2  363.27    5.99
  -6  -9  -3   30.78    1.45
   6   9   3   30.17    1.85
   6   9   3   31.98    1.76
   6   9   3   31.54    1.84
   6   9   4   27.11    1.43
  -6  -9  -4   26.80    1.38
   6   9   4   27.32    1.69
   6   9   4   25.81    1.65
   6   9   5  255.79    5.02
   6   9   5  250.70    4.77
  -6  -9  -6   54.85    1.91
   6   9   6   56.54    2.32
   6   9   6   55.18    2.14
  -6  -9  -7    3.65    0.53
   6   9   7    4.38    0.73
   6   9   7    3.70    0.60
   6   9   8    6.65    0.75
   6   9   8    5.99    0.56
   6   9   9    2.90    0.45
  -6  -9  -9    1.51    0.32
  -6 -10   0   43.08    1.25
   6  10   0   41.70    1.29
  -6 -10  -1   10.61    0.68
  -6 -10  -1   12.00    0.76
   6  10   1   12.13    0.86
  -6 -10  -2  150.16    2.65
   6  10   2  154.88    3.00
  -6 -10  -3    0.24    0.27
   6  10   3    0.28    0.33
   6  10   3    0.01    0.36
  -6 -10  -4    0.28    0.33
  -6 -10  -4    0.66    0.25
   6  10   4    0.49    0.39
   6  10   4    0.38    0.34
  -6 -10  -5   10.21    0.75
   6  10   5   11.10    0.87
   6  10   5   10.61    0.78
  -6 -10  -6   -0.47    0.23
  -6 -10  -6    0.14    0.26
   6  10   6    0.25    0.35
   6  10   6    0.16    0.22
   6  10   7  133.97    2.39
  -6 -10  -7   78.52    1.81
  -7   5   3    0.16    0.28
   7  -5  -3    0.60    0.32
   7  -5  -3    0.79    0.25
  -7   5   2   12.39    0.74
   7  -5  -2   13.16    0.73
   7  -5  -2   11.75    0.73
  -7   5   1   39.22    1.31
   7  -5  -1   45.29    1.30
  -7   5   0    5.61    0.54
  -7   5   0   13.90    0.77
   7  -4  -6   24.95    1.01
  -7   4   6   22.27    1.10
   7  -4  -5   77.69    1.89
  -7   4   5   78.02    2.08
   7  -4  -5   71.45    1.81
   7  -4  -5   70.60    1.54
  -7   4   5   70.23    2.13
   7  -4  -4   15.48    0.90
  -7   4   4   15.41    1.08
   7  -4  -4   14.63    0.86
  -7   4   4   14.76    0.89
   7  -4  -4   16.68    0.95
  -7   4   4   15.15    1.09
   7  -4  -4   14.94    1.06
  -7   4   3    4.33    0.69
  -7   4   3    4.80    0.65
   7  -4  -3    5.16    0.63
   7  -4  -3    5.62    0.74
  -7   4   3    3.31    0.64
  -7   4   2   72.69    2.51
   7  -4  -2   74.10    2.37
  -7   4   2   76.39    2.44
   7  -4  -2   80.64    2.36
   7  -4  -2   78.11    2.45
   7  -4  -1   28.32    1.44
  -7   4   1   29.92    1.60
   7  -4  -1   30.62    1.50
  -7   4   1   28.92    1.35
   7  -4  -1   29.12    1.49
   7  -4   0   13.32    0.93
  -7   4   0   13.14    1.10
   7  -4   0   13.48    1.00
  -7   4   0   12.97    0.96
   7  -4   0   13.89    0.99
   7  -4   1   50.41    1.93
  -7   4  -1   50.51    2.02
   7  -4   1   55.00    1.79
  -7   4  -1   54.85    1.91
   7  -4   1   47.19    1.51
   7  -4   2    3.48    0.57
  -7   4  -2    3.86    0.45
  -7   4  -2    3.54    0.61
   7  -4   2    4.34    0.50
  -7   4  -2    4.00    0.57
  -7   4  -3    0.52    0.37
  -7   4  -3    0.84    0.35
   7  -3  -7  112.81    2.44
   7  -3  -7  113.63    2.34
  -7   3   7  104.88    2.46
  -7   3   7  108.07    2.38
   7  -3  -6  109.13    2.73
  -7   3   6  102.42    2.44
   7  -3  -6  108.82    2.73
   7  -3  -6  109.13    2.60
  -7   3   6  110.15    2.88
  -7   3   6  106.02    2.78
   7  -3  -5   45.76    1.91
  -7   3   5   40.87    1.80
   7  -3  -5   42.20    1.84
   7  -3  -5   43.84    1.77
   7  -3  -5   46.56    1.66
  -7   3   5   43.78    2.00
   7  -3  -5   43.06    1.89
   7  -3  -4  105.52    2.94
  -7   3   4  105.14    3.14
   7  -3  -4  108.63    2.95
   7  -3  -4  106.91    2.78
   7  -3  -4  113.22    2.94
   7  -3  -4  109.65    3.25
   7  -3  -3   33.88    1.66
  -7   3   3   31.38    1.83
   7  -3  -3   31.20    1.55
   7  -3  -3   31.89    1.53
  -7   3   3   33.67    1.75
   7  -3  -3   34.41    1.77
   7  -3  -3   32.81    1.88
   7  -3  -2  102.99    3.28
  -7   3   2  110.27    3.34
   7  -3  -2  108.44    3.21
   7  -3  -2  105.66    3.34
   7  -3  -1  204.04    4.58
   7  -3  -1  203.01    4.47
  -7   3   1  218.27    4.85
   7  -3  -1  213.38    4.56
   7  -3   0   23.86    1.56
   7  -3   0   23.57    1.49
   7  -3   0   20.48    1.57
   7  -3   0   23.87    1.54
  -7   3   0   21.34    1.44
   7  -3   1   48.59    2.29
   7  -3   1   51.93    1.93
   7  -3   1   51.99    2.15
  -7   3  -1   52.87    2.25
   7  -3   1   51.71    2.09
   7  -3   2    7.94    0.98
   7  -3   2    8.88    0.84
  -7   3  -2    9.51    0.91
   7  -3   2    8.36    0.85
   7  -3   2    7.81    0.79
  -7   3  -2    8.68    0.97
   7  -3   3   51.13    2.07
   7  -3   3   48.48    1.85
  -7   3  -3   51.08    2.00
   7  -3   3   49.77    1.67
   7  -3   3   48.36    1.84
   7  -3   4    2.30    0.46
   7  -3   4    2.71    0.56
  -7   3  -4    2.41    0.51
   7  -3   4    2.79    0.51
   7  -3   5    4.00    0.51
  -7   3  -5    3.87    0.54
   7  -3   5    3.12    0.48
   7  -2  -8   15.15    0.92
   7  -2  -8   14.49    0.88
  -7   2   8   12.50    0.89
  -7   2   8   13.73    0.90
  -7   2   8   12.22    0.70
   7  -2  -7    1.65    0.49
   7  -2  -7    1.73    0.52
  -7   2   7    1.70    0.58
  -7   2   7    1.71    0.52
  -7   2   7    1.92    0.49
   7  -2  -6   57.17    2.29
   7  -2  -6   55.23    2.25
   7  -2  -6   54.12    2.16
  -7   2   6   54.72    2.31
  -7   2   6   51.16    2.14
   7  -2  -5   29.20    1.76
  -7   2   5   28.59    1.60
   7  -2  -5   30.07    1.78
   7  -2  -5   29.90    1.71
   7  -2  -5   29.20    1.50
  -7   2   5   29.24    1.78
   7  -2  -4   55.14    2.43
  -7   2   4   53.38    2.36
   7  -2  -4   56.33    2.44
   7  -2  -4   54.60    2.34
   7  -2  -4   56.82    2.31
   7  -2  -4   58.58    2.62
   7  -2  -3   42.10    2.12
   7  -2  -3   38.13    1.97
   7  -2  -3   40.79    2.03
   7  -2  -3   44.09    2.18
   7  -2  -3   42.19    2.30
   7  -2  -2    6.43    0.99
   7  -2  -2    4.44    0.70
   7  -2  -2    4.75    0.92
   7  -2  -2    4.40    0.72
  -7   2   2    3.92    0.72
   7  -2  -2    5.35    0.89
   7  -2  -1  515.03    7.88
   7  -2  -1  502.56    7.71
   7  -2  -1  504.16    6.62
   7  -2  -1  516.44    7.67
   7  -2   0   56.91    2.58
   7  -2   0   54.62    2.48
   7  -2   0   54.10    2.68
   7  -2   0   58.94    2.35
   7  -2   0   60.19    2.63
   7  -2   1  348.49    6.03
   7  -2   1  352.06    6.63
   7  -2   1  376.37    6.06
   7  -2   1  365.76    6.25
   7  -2   2   32.87    2.01
   7  -2   2   34.94    1.91
   7  -2   2   35.62    1.89
   7  -2   2   36.01    1.82
   7  -2   3   37.62    2.03
   7  -2   3   37.52    1.97
   7  -2   3   40.33    1.82
   7  -2   3   37.32    1.86
   7  -2   4    8.74    0.98
   7  -2   4    9.32    1.01
   7  -2   4    8.46    0.92
   7  -2   5    7.41    0.77
   7  -2   5    8.01    0.88
   7  -2   5    8.89    0.91
  -7   2  -6   74.73    1.96
   7  -2   6   80.59    2.27
   7  -2   6   79.43    2.21
   7  -2   7    6.62    0.59
  -7   2  -7    6.48    0.64
   7  -2   7    6.67    0.60
  -7   1   9    0.34    0.31
  -7   1   9    0.44    0.29
   7  -1  -8   48.75    1.74
   7  -1  -8   46.26    1.62
   7  -1  -8   50.90    1.72
  -7   1   8   51.56    1.91
   7  -1  -8   48.15    1.66
  -7   1   8   46.80    1.71
   7  -1  -7   23.36    1.45
   7  -1  -7   23.45    1.33
   7  -1  -7   25.18    1.46
  -7   1   7   25.01    1.58
   7  -1  -7   22.85    1.33
  -7   1   7   22.14    1.41
  -7   1   7   23.13    1.27
   7  -1  -6  106.23    3.36
   7  -1  -6   98.85    2.84
   7  -1  -6   98.66    3.26
   7  -1  -6  104.25    3.21
   7  -1  -6   96.93    2.85
  -7   1   6  105.46    3.32
  -7   1   6   99.95    3.00
   7  -1  -5  440.80    7.16
   7  -1  -5  430.60    7.04
   7  -1  -5  444.59    6.96
   7  -1  -5  429.77    6.04
  -7   1   5  442.81    6.88
   7  -1  -4   15.75    1.44
   7  -1  -4   15.24    1.42
   7  -1  -4   18.13    1.51
   7  -1  -4   17.66    1.40
   7  -1  -4   16.01    1.46
   7  -1  -3  113.49    3.68
   7  -1  -3  113.19    3.63
   7  -1  -3  111.55    3.61
   7  -1  -3  116.84    3.62
   7  -1  -3  114.86    3.89
   7  -1  -2  358.73    6.37
   7  -1  -2  356.84    6.21
   7  -1  -2  366.10    6.41
   7  -1  -2  374.28    6.67
   7  -1  -2  380.73    7.09
   7  -1  -1  242.02    5.46
   7  -1  -1  241.16    5.06
   7  -1  -1  239.17    4.88
   7  -1  -1  250.20    5.51
   7  -1  -1  236.75    5.54
   7  -1   0  104.63    3.50
   7  -1   0   99.51    3.16
   7  -1   0   99.09    3.71
   7  -1   0  103.99    3.35
   7  -1   0  103.49    3.48
   7  -1   0  109.63    3.64
   7  -1   0   98.36    3.53
   7  -1   1    0.51    0.43
   7  -1   1    0.43    0.41
   7  -1   1    0.75    0.54
   7  -1   1    0.72    0.40
   7  -1   1    1.17    0.59
   7  -1   2  514.98    8.13
   7  -1   2  531.60    7.85
   7  -1   2  533.84    7.49
   7  -1   2  536.57    7.58
   7  -1   3  296.43    5.98
   7  -1   3  312.61    6.08
   7  -1   3  311.22    5.52
   7  -1   3  313.49    5.46
   7  -1   3  316.11    5.56
   7  -1   4  627.10    8.43
   7  -1   4  645.34    8.02
   7  -1   5  163.63    3.74
   7  -1   5  172.21    4.24
   7  -1   6  253.94    4.75
   7  -1   6  254.77    4.65
   7  -1   7  230.78    3.95
  -7   1  -7  226.03    3.51
   7  -1   7  236.23    4.01
  -7   1  -8    1.94    0.36
   7  -1   8    2.32    0.41
   7  -1   8    2.38    0.46
  -7   0   9    4.31    0.54
  -7   0   9    6.35    0.61
   7   0  -9    5.62    0.58
   7   0  -9    4.79    0.47
   7   0  -8    1.57    0.46
   7   0  -8    1.32    0.37
  -7   0   8    1.75    0.50
  -7   0   8    1.86    0.52
   7   0  -8    1.70    0.50
  -7   0   8    1.31    0.40
   7   0  -7    6.10    0.86
   7   0  -7    6.45    0.84
   7   0  -7    6.04    0.79
  -7   0   7    6.22    0.91
   7   0  -7    6.22    0.84
  -7   0   7    6.09    0.78
   7   0  -6  126.38    3.76
   7   0  -6  118.18    3.44
   7   0  -6  124.60    3.60
   7   0  -6  120.79    3.50
  -7   0   6  126.40    3.60
   7   0  -5  137.40    4.12
   7   0  -5  132.96    3.70
   7   0  -5  131.36    4.06
   7   0  -5  133.37    3.97
   7   0  -5  138.93    3.83
   7   0  -5  139.38    3.54
  -7   0   5  139.64    3.75
   7   0  -4   44.73    2.42
   7   0  -4   38.36    2.28
   7   0  -4   40.38    2.27
   7   0  -4   40.44    2.09
   7   0  -4   41.08    2.10
   7   0  -3   48.89    2.51
   7   0  -3   44.67    2.39
   7   0  -3   48.01    2.45
   7   0  -3   46.17    2.34
   7   0  -3   48.96    2.59
   7   0  -2   23.15    1.71
   7   0  -2   24.10    1.68
   7   0  -2   22.55    1.70
   7   0  -2   24.16    1.57
   7   0  -2   23.52    1.72
   7   0  -2   22.82    1.80
   7   0  -1    0.94    0.51
   7   0  -1    0.52    0.49
   7   0  -1    1.03    0.58
   7   0  -1    0.54    0.42
   7   0  -1    1.05    0.50
   7   0  -1    0.83    0.53
   7   0   0  427.68    6.87
   7   0   0  445.97    7.12
   7   0   0  423.08    7.31
   7   0   0  441.33    7.29
   7   0   0  427.72    7.33
   7   0   1  159.44    4.10
   7   0   1  158.61    4.59
   7   0   1  166.07    4.44
   7   0   1  167.70    4.58
   7   0   1  158.63    4.33
   7   0   1  154.61    4.30
   7   0   2  107.44    3.24
   7   0   2  109.53    3.76
   7   0   2  119.35    3.83
   7   0   2  114.92    3.76
   7   0   2  109.84    3.52
   7   0   3  190.91    4.88
   7   0   3  204.79    5.06
   7   0   3  199.76    4.88
   7   0   3  197.90    4.49
   7   0   4   49.02    2.33
   7   0   4   49.90    2.53
   7   0   4   50.71    2.43
   7   0   4   49.28    2.29
   7   0   5  591.87    8.41
   7   0   5  600.64    7.95
   7   0   5  607.82    8.07
   7   0   6    0.35    0.39
   7   0   6    0.15    0.40
   7   0   7   98.38    2.92
   7   0   7   95.24    2.65
   7   0   7   97.22    2.96
   7   0   8   77.33    2.20
  -7   0  -8   81.95    2.36
   7   0   8   79.70    2.39
  -7   0  -9   32.10    1.18
   7   0   9   33.13    1.30
  -7  -1   9  124.27    2.39
   7   1  -9  123.19    2.21
   7   1  -8   24.70    1.42
   7   1  -8   26.56    1.20
  -7  -1   8   25.64    1.38
  -7  -1   8   25.53    1.41
   7   1  -8   27.25    1.47
   7   1  -7    0.60    0.49
   7   1  -7   -0.26    0.37
  -7  -1   7   -0.01    0.45
   7   1  -7    0.38    0.47
  -7  -1   7   -0.09    0.29
   7   1  -6  103.32    3.44
   7   1  -6  106.43    3.42
   7   1  -6  101.71    2.94
   7   1  -6  105.44    3.25
   7   1  -6  113.11    3.54
  -7  -1   6  102.21    3.09
   7   1  -5  446.05    7.50
   7   1  -5  450.17    7.19
   7   1  -5  450.66    6.37
   7   1  -5  453.09    7.20
   7   1  -5  461.49    7.36
  -7  -1   5  459.43    6.98
   7   1  -5  452.48    6.38
   7   1  -4  135.91    4.25
   7   1  -4  142.60    4.02
   7   1  -4  143.40    4.21
   7   1  -4  141.26    4.09
   7   1  -4  148.60    3.97
   7   1  -3  130.49    4.11
   7   1  -3  132.69    4.06
   7   1  -3  139.13    3.81
   7   1  -3  132.07    3.86
   7   1  -3  133.77    3.91
   7   1  -2  290.07    5.99
   7   1  -2  299.64    6.07
   7   1  -2  292.51    5.70
   7   1  -2  294.35    5.91
   7   1  -1  205.34    4.89
   7   1  -1  199.74    4.89
   7   1  -1  207.92    4.87
   7   1  -1  204.82    5.21
  -7  -1   1  199.07    8.07
   7   1  -1  221.00    5.14
   7   1   0  184.51    4.40
   7   1   0  190.91    4.70
   7   1   0  198.15    4.82
   7   1   0  195.53    5.01
  -7  -1   0  188.27    8.33
   7   1   0  192.32    4.77
   7   1   0  184.50    4.80
   7   1   1   82.96    3.05
   7   1   1   92.45    3.35
   7   1   1   78.84    5.35
   7   1   1   89.68    3.39
  -7  -1  -1   88.02    5.66
   7   1   1   85.19    3.17
   7   1   1   81.43    3.10
   7   1   2  197.69    4.62
   7   1   2  212.08    5.15
   7   1   2  209.29    4.95
   7   1   2  216.69    5.24
  -7  -1  -2  201.90    8.59
   7   1   2  207.56    4.79
   7   1   3  958.06    9.81
   7   1   3  975.63   11.20
   7   1   3  938.32   11.01
   7   1   3  983.40   11.18
   7   1   3  939.62    9.79
   7   1   4  301.09    6.17
   7   1   4  299.16    6.29
   7   1   4  303.19    6.22
   7   1   5    9.66    1.17
   7   1   5   11.65    1.32
   7   1   5   10.82    1.23
   7   1   5    9.19    1.05
   7   1   6   67.40    2.78
   7   1   6   65.65    2.99
   7   1   6   72.35    2.93
   7   1   6   67.00    2.72
   7   1   7    0.32    0.42
   7   1   7    0.56    0.42
   7   1   7    1.60    0.58
   7   1   8   33.87    1.60
   7   1   8   34.23    1.70
   7   1   8   37.66    1.85
   7   1   9   36.19    1.41
   7   1   9   34.74    1.55
   7   1  10   98.16    1.97
  -7  -2   9    4.21    0.46
  -7  -2   9    3.86    0.47
   7   2  -9    4.64    0.48
   7   2  -8   56.89    1.87
  -7  -2   8   51.85    1.70
  -7  -2   8   56.68    1.96
   7   2  -8   58.54    2.06
  -7  -2   8   58.99    2.06
   7   2  -8   54.80    1.89
   7   2  -7   22.67    1.55
   7   2  -7   23.47    1.41
   7   2  -7   23.98    1.32
  -7  -2   7   24.93    1.47
  -7  -2   7   23.79    1.50
   7   2  -7   24.20    1.58
   7   2  -6    0.80    0.54
   7   2  -6    0.42    0.42
   7   2  -6    0.25    0.37
  -7  -2   6    0.73    0.48
   7   2  -6    1.98    0.67
   7   2  -5    1.34    0.63
   7   2  -5    0.29    0.41
   7   2  -5    1.38    0.59
   7   2  -5    1.12    0.58
   7   2  -5    0.34    0.57
   7   2  -4  330.99    6.60
   7   2  -4  321.53    6.28
   7   2  -4  336.05    6.00
   7   2  -4  328.57    6.23
   7   2  -4  340.99    6.55
   7   2  -4  327.53    5.84
   7   2  -3    0.63    0.58
   7   2  -3    0.37    0.44
   7   2  -3    1.00    0.46
   7   2  -3    1.00    0.57
   7   2  -3    2.04    0.77
   7   2  -3    1.63    0.56
   7   2  -3    0.84    0.50
   7   2  -2  183.62    4.84
   7   2  -2  190.19    4.42
   7   2  -2  201.44    4.94
   7   2  -2  195.67    4.77
   7   2  -2  186.44    4.67
   7   2  -2  194.79    4.79
   7   2  -1   39.73    2.20
   7   2  -1   40.25    2.23
   7   2  -1   37.38    2.14
   7   2  -1   35.92    2.23
   7   2  -1   35.86    1.99
  -7  -2   1   38.27    3.63
   7   2  -1   38.23    2.16
   7   2   0   95.15    3.37
   7   2   0   99.56    3.47
   7   2   0   96.71    3.55
  -7  -2   0   92.80    5.40
   7   2   0   97.01    3.36
   7   2   1  817.21    9.69
   7   2   1  842.70   10.07
   7   2   1  797.11   17.02
   7   2   1  852.84   10.39
  -7  -2  -1  823.60   16.71
   7   2   1  821.87    9.66
   7   2   2    1.71    0.54
   7   2   2    1.00    0.84
   7   2   2    2.32    0.65
   7   2   2    1.60    0.55
   7   2   2   -0.18    0.58
   7   2   2    1.05    0.52
  -7  -2  -2   -1.03    0.91
   7   2   2    1.29    0.49
   7   2   3  234.82    5.07
   7   2   3  242.00    5.49
   7   2   3  242.64    5.45
   7   2   3  236.69    5.57
  -7  -2  -3  217.91    9.03
   7   2   3  238.42    5.14
   7   2   3  225.81    4.82
   7   2   4   98.94    3.25
   7   2   4   99.97    3.56
   7   2   4   95.21    3.53
   7   2   4  103.95    3.72
   7   2   4  101.53    3.49
   7   2   5   89.19    3.05
   7   2   5   78.05    3.11
   7   2   5   81.37    3.32
   7   2   5   85.49    3.37
   7   2   5   81.09    3.21
   7   2   6   82.10    3.08
   7   2   6   87.41    3.43
   7   2   6   84.34    3.32
   7   2   6   78.01    3.17
   7   2   6   83.32    3.05
   7   2   7    2.04    0.59
   7   2   7    1.81    0.66
   7   2   7    0.72    0.54
   7   2   7    0.93    0.52
   7   2   8   65.44    2.24
   7   2   8   62.79    2.61
   7   2   8   67.39    2.66
   7   2   8   63.93    2.50
   7   2   9  194.81    3.93
   7   2   9  197.02    3.95
   7   2  10    0.80    0.34
   7   2  10    0.78    0.41
   7   3  -8    2.10    0.47
   7   3  -8    1.28    0.41
  -7  -3   8    1.84    0.40
   7   3  -8    1.39    0.39
  -7  -3   8    1.72    0.52
   7   3  -8    1.73    0.46
   7   3  -7    8.16    0.89
   7   3  -7    8.21    0.86
  -7  -3   7    6.89    0.80
   7   3  -7    8.58    0.95
   7   3  -7    7.87    0.81
   7   3  -7    8.16    0.89
   7   3  -6   66.11    2.58
   7   3  -6   65.42    2.50
  -7  -3   6   66.22    2.52
   7   3  -6   65.64    2.72
   7   3  -6   65.54    2.44
   7   3  -6   65.26    2.53
   7   3  -5    0.25    0.45
   7   3  -5    0.02    0.34
   7   3  -5    0.36    0.48
   7   3  -5   -0.13    0.48
   7   3  -5    0.95    0.45
   7   3  -5   -0.12    0.52
   7   3  -4  349.59    6.37
   7   3  -4  360.05    6.38
   7   3  -4  346.53    6.08
   7   3  -4  354.79    6.80
   7   3  -4  347.97    5.99
   7   3  -4  351.45    6.14
   7   3  -3   29.00    1.88
   7   3  -3   32.41    1.92
   7   3  -3   29.08    1.85
   7   3  -3   27.06    1.90
   7   3  -3   26.39    1.77
   7   3  -3   28.61    1.73
   7   3  -2  492.23    7.52
   7   3  -2  509.29    7.77
   7   3  -2  501.30    7.82
   7   3  -2  482.28    7.82
   7   3  -2  509.64    7.71
   7   3  -1   26.25    1.72
   7   3  -1   25.79    1.78
   7   3  -1   27.25    1.88
   7   3  -1   24.57    1.81
   7   3  -1   26.28    1.79
  -7  -3   1   27.25    3.18
   7   3  -1   25.96    1.78
   7   3   0  764.70    9.01
   7   3   0  756.81    9.42
   7   3   0  757.43   16.21
   7   3   0  773.84    9.72
   7   3   0  747.42    9.68
  -7  -3   0  765.17   15.97
   7   3   0  736.22    9.22
   7   3   1   54.96    2.40
   7   3   1   55.80    4.48
   7   3   1   52.96    2.52
   7   3   1   54.31    4.49
   7   3   1   59.22    2.73
   7   3   1   57.46    2.69
  -7  -3  -1   64.71    4.56
  -7  -3  -1   53.60    4.10
   7   3   1   53.79    2.50
   7   3   2    4.35    0.70
   7   3   2    3.95    0.80
   7   3   2    6.19    1.77
   7   3   2    4.63    0.84
   7   3   2    6.69    1.74
   7   3   2    5.18    0.84
   7   3   2    6.50    1.59
   7   3   2    6.13    0.96
   7   3   2    3.55    0.67
   7   3   3   -0.08    0.64
   7   3   3    0.03    0.66
   7   3   3    1.32    0.52
   7   3   3    1.19    0.53
   7   3   3    1.34    0.76
   7   3   3    0.46    0.45
   7   3   3    1.23    0.45
   7   3   3    1.15    0.48
   7   3   4   10.23    1.09
   7   3   4    8.96    1.12
   7   3   4   10.42    1.18
   7   3   4   10.48    1.22
   7   3   4    9.72    1.24
   7   3   4   11.15    1.22
   7   3   5  165.78    4.35
   7   3   5  156.98    4.31
   7   3   5  157.56    4.60
   7   3   5  165.35    4.71
   7   3   5  163.97    4.59
   7   3   6  180.94    4.41
   7   3   6  174.03    4.36
   7   3   6  176.89    4.89
   7   3   6  176.64    4.86
   7   3   6  173.88    4.77
   7   3   6  167.59    4.25
   7   3   7   27.51    1.64
   7   3   7   34.33    2.15
   7   3   7   33.16    2.10
   7   3   7   28.67    1.93
   7   3   7   29.19    1.80
   7   3   8   33.20    1.98
   7   3   8   32.03    1.97
   7   3   8   29.86    1.77
   7   3   9   72.84    2.57
   7   3   9   71.74    2.62
   7   3   9   70.97    2.48
   7   3  10    0.66    0.36
   7   3  10   -0.13    0.38
  -7  -3 -10   -0.07    0.23
  -7  -4   8    0.74    0.35
   7   4  -8    1.52    0.38
   7   4  -8    0.93    0.35
  -7  -4   8    0.56    0.31
   7   4  -8    1.15    0.36
   7   4  -7   56.61    2.00
   7   4  -7   52.01    1.95
  -7  -4   7   51.69    1.66
   7   4  -7   52.76    1.89
  -7  -4   7   54.44    1.97
   7   4  -7   53.92    1.94
   7   4  -6  352.12    5.65
   7   4  -6  347.45    5.67
  -7  -4   6  338.73    4.96
   7   4  -6  338.19    5.47
  -7  -4   6  333.69    5.48
   7   4  -6  337.05    5.47
   7   4  -5   20.15    1.55
   7   4  -5   20.12    1.52
  -7  -4   5   19.21    1.33
   7   4  -5   21.09    1.64
   7   4  -5   19.70    1.47
   7   4  -5   18.86    1.44
   7   4  -4  131.40    3.96
   7   4  -4  129.29    3.93
   7   4  -4  121.85    3.97
   7   4  -4  129.05    3.81
   7   4  -4  132.41    3.69
   7   4  -4  125.43    3.71
   7   4  -3   26.23    1.82
   7   4  -3   27.07    1.88
   7   4  -3   25.90    1.66
   7   4  -3   25.14    1.87
   7   4  -3   25.18    1.75
   7   4  -3   27.71    1.84
   7   4  -3   25.42    1.68
   7   4  -2    4.53    0.86
   7   4  -2    4.78    0.84
   7   4  -2    5.10    0.87
   7   4  -2    4.34    0.89
   7   4  -2    3.66    0.79
   7   4  -1  604.94    8.52
   7   4  -1  611.33    8.55
   7   4  -1  609.69    8.35
   7   4  -1  607.97    8.81
   7   4  -1  607.08    8.49
   7   4   0    2.17    0.62
   7   4   0    2.84    0.67
   7   4   0    1.53    0.54
   7   4   0    2.32    0.62
   7   4   0    1.73    0.57
  -7  -4   0    3.74    1.28
   7   4   1   97.27    3.36
   7   4   1   97.43    3.39
   7   4   1  104.89    3.63
   7   4   1  100.02    3.49
  -7  -4  -1   96.86    5.74
   7   4   1   97.71    3.36
   7   4   2    1.76    0.61
   7   4   2    0.30    0.62
   7   4   2    1.44    0.60
   7   4   2    1.55    0.51
   7   4   2    1.50    0.55
   7   4   2    1.10    0.52
   7   4   2    1.95    0.60
   7   4   3  199.52    4.78
   7   4   3  190.02    4.77
   7   4   3  193.13    4.81
   7   4   3  205.11    4.97
   7   4   3  196.11    4.98
   7   4   3  202.91    4.95
   7   4   3  187.64    4.41
   7   4   4  289.27    5.74
   7   4   4  286.10    5.84
   7   4   4  291.58    5.82
   7   4   4  300.36    6.20
   7   4   4  295.07    6.20
   7   4   4  296.38    6.13
   7   4   5   45.64    2.33
   7   4   5   42.85    2.19
   7   4   5   45.04    2.47
   7   4   5   45.41    2.48
   7   4   5   44.32    2.44
   7   4   6  242.25    5.15
   7   4   6  220.38    4.69
   7   4   6  228.07    5.54
   7   4   6  234.76    5.61
   7   4   6  230.65    5.52
   7   4   7   22.79    1.76
   7   4   7   22.03    1.74
   7   4   7   25.14    1.85
   7   4   7   22.68    1.59
   7   4   8  191.02    4.70
   7   4   8  193.70    4.75
   7   4   8  192.83    4.72
   7   4   8  188.41    4.31
   7   4   9  120.68    3.35
   7   4   9  117.09    3.41
   7   4   9  118.63    3.20
   7   4  10    4.07    0.59
   7   4  10    4.85    0.69
   7   4  10    4.58    0.65
   7   4  11    3.77    0.50
   7   4  11    4.00    0.47
  -7  -5   7   27.97    1.22
   7   5  -7   30.65    1.26
   7   5  -7   29.39    1.30
  -7  -5   7   26.05    1.18
   7   5  -7   28.71    1.23
  -7  -5   7   26.42    1.09
  -7  -5   6    8.47    0.87
   7   5  -6    9.64    0.92
   7   5  -6    8.42    0.92
  -7  -5   6    8.24    0.81
   7   5  -6    8.50    0.87
   7   5  -5    0.67    0.45
   7   5  -5    0.18    0.53
  -7  -5   5    1.34    0.57
   7   5  -5    0.09    0.46
   7   5  -4   39.34    2.14
   7   5  -4   40.27    2.21
   7   5  -4   38.65    2.03
   7   5  -3  732.67    9.39
   7   5  -3  749.23    9.65
   7   5  -3  733.43    8.82
   7   5  -3  733.51    8.84
   7   5  -2   12.61    1.32
   7   5  -2   11.69    1.30
   7   5  -2   12.52    1.18
   7   5  -1   17.70    1.52
   7   5  -1   16.23    1.48
   7   5  -1   13.44    1.22
   7   5   0    7.39    1.05
   7   5   0    5.87    0.86
   7   5   1   11.79    1.27
   7   5   1   11.35    1.22
   7   5   1   15.55    1.48
   7   5   1   12.54    1.24
   7   5   1   13.68    1.36
   7   5   2 1226.57   12.19
   7   5   2 1186.86   11.87
   7   5   2 1189.21   11.99
   7   5   2 1226.15   11.78
   7   5   2 1222.83   12.19
   7   5   2 1165.81   11.36
   7   5   3  325.82    6.28
   7   5   3  322.41    6.25
   7   5   3  319.31    6.05
   7   5   3  330.17    6.37
   7   5   3  323.72    6.13
   7   5   3  328.24    6.44
   7   5   3  319.43    5.80
   7   5   4    2.08    0.69
   7   5   4    3.83    0.72
   7   5   4    4.81    0.89
   7   5   4    3.50    0.75
   7   5   4    5.03    0.90
   7   5   5   11.00    1.33
   7   5   5   12.33    1.35
   7   5   5    9.39    1.14
   7   5   5    9.86    1.23
   7   5   6    2.82    1.45
   7   5   6    3.69    0.83
   7   5   6    4.11    0.83
   7   5   6    2.97    0.78
   7   5   7  179.11    4.76
   7   5   7  175.96    4.58
   7   5   7  180.73    4.77
   7   5   8    4.02    0.79
   7   5   8    4.63    0.79
   7   5   8    6.16    0.94
   7   5   8    5.38    0.78
   7   5   9   14.00    1.20
   7   5   9   13.31    1.18
   7   5   9   12.94    1.15
   7   5   9   14.31    1.14
   7   5  10   44.39    1.69
   7   5  10   43.58    1.76
   7   5  10   41.19    1.61
   7   5  11   14.07    0.79
  -7  -6   6    6.73    0.61
   7   6  -6    6.58    0.62
  -7  -6   6    6.60    0.60
   7   6  -6    7.73    0.69
  -7  -6   5   90.12    2.46
   7   6  -5   91.66    2.57
   7   6  -5   87.50    2.72
   7   6  -5   92.47    2.60
  -7  -6   4   46.45    1.94
   7   6  -4   47.93    2.11
   7   6  -4   47.89    2.27
   7   6  -4   48.13    2.09
   7   6  -4   47.82    1.93
   7   6  -3   26.80    1.74
   7   6  -3   24.85    1.76
   7   6  -3   27.24    1.67
   7   6  -3   27.50    1.64
   7   6  -2   11.10    1.21
   7   6  -2    7.83    1.08
   7   6  -2    8.09    0.99
   7   6  -2    7.73    0.98
   7   6  -1    0.72    0.54
   7   6  -1    1.24    0.44
   7   6  -1    0.87    0.45
   7   6   0  151.32    4.31
   7   6   0  146.36    3.83
   7   6   0  149.21    4.11
   7   6   0  151.70    4.29
   7   6   1   13.45    1.37
   7   6   1   11.88    1.25
   7   6   2   33.09    2.07
   7   6   2   46.00    2.40
   7   6   2   32.08    2.06
   7   6   2   50.51    2.70
   7   6   3  227.59    5.30
   7   6   3  246.05    5.40
   7   6   3  227.43    5.03
   7   6   3  222.24    5.18
   7   6   3  229.36    5.45
   7   6   3  243.71    5.12
   7   6   4   64.30    2.85
   7   6   4   72.85    3.26
   7   6   4   74.77    3.10
   7   6   4   68.92    3.04
   7   6   5 1924.39   15.19
   7   6   5 1883.46   14.97
   7   6   5 1901.64   15.74
   7   6   5 1886.73   15.69
   7   6   6    6.22    1.03
   7   6   6    6.96    0.92
   7   6   6    5.67    0.94
   7   6   7    0.38    0.54
   7   6   7    0.70    0.47
   7   6   7    0.77    0.55
   7   6   8  121.26    3.61
   7   6   8  114.68    3.21
   7   6   8  115.72    3.47
   7   6   8  113.30    3.04
   7   6   9   15.83    1.20
   7   6   9   16.39    1.14
   7   6   9   15.92    1.21
   7   6   9   15.05    1.07
   7   6  10   29.16    1.31
   7   6  10   27.35    1.21
   7   6  10   27.17    1.20
   7   7  -5   19.73    0.85
  -7  -7   5   20.23    1.00
  -7  -7   5   17.98    0.81
  -7  -7   4   59.06    1.68
   7   7  -4   63.56    1.97
  -7  -7   4   65.75    2.08
  -7  -7   4   62.34    1.79
   7   7  -4   63.92    2.07
   7   7  -4   60.48    1.90
   7   7  -3   76.66    2.47
  -7  -7   3   73.95    2.13
   7   7  -3   74.85    2.47
   7   7  -3   75.25    2.50
   7   7  -2   29.43    1.69
   7   7  -2   31.21    1.69
   7   7  -2   31.32    1.80
   7   7  -1   15.47    1.32
   7   7  -1   13.84    1.19
   7   7  -1   12.98    1.15
   7   7  -1   12.95    1.24
   7   7   0    3.26    0.71
   7   7   0    2.22    0.53
   7   7   0    2.46    0.70
   7   7   0    3.29    0.65
   7   7   1   66.27    2.77
   7   7   1   68.10    2.85
   7   7   2   51.96    2.49
   7   7   2   58.25    2.56
   7   7   2   53.19    2.60
   7   7   3  110.53    3.64
   7   7   3  112.44    3.56
   7   7   3  113.37    3.60
   7   7   3  113.90    3.80
   7   7   4   10.12    1.20
   7   7   4    8.26    1.08
   7   7   4    8.76    1.14
   7   7   5   34.68    2.11
   7   7   5   29.88    1.96
   7   7   5   31.20    2.02
   7   7   6  251.92    5.25
   7   7   6  237.07    5.32
   7   7   6  236.90    5.23
   7   7   7   55.30    2.49
   7   7   7   57.46    2.48
   7   7   8  208.38    4.43
   7   7   8  202.85    4.20
   7   7   9    4.98    0.69
   7   7   9    4.46    0.64
   7   7  10   71.99    1.81
  -7  -8   3   13.92    0.88
   7   8  -3   11.22    0.66
  -7  -8   3   10.90    0.72
   7   8  -3   14.12    0.92
  -7  -8   2   60.25    1.95
   7   8  -2   54.96    1.78
  -7  -8   2   53.67    1.70
   7   8  -2   60.44    2.00
  -7  -8   1   82.71    2.38
   7   8  -1   79.70    2.40
   7   8  -1   79.86    2.44
   7   8  -1   83.28    2.50
  -7  -8   0    6.22    0.72
   7   8   0    5.07    0.72
   7   8   0    6.94    0.88
   7   8   0    6.42    0.78
   7   8   1  301.23    5.20
   7   8   1  310.51    5.57
   7   8   1  305.96    4.89
   7   8   2  410.37    6.22
   7   8   2  413.82    6.66
   7   8   3  171.56    4.10
   7   8   3  168.04    4.04
   7   8   3  171.40    4.35
   7   8   4  123.21    3.47
   7   8   4  117.72    3.50
   7   8   4  116.85    3.61
   7   8   5   46.58    2.22
   7   8   5   45.96    2.26
   7   8   6   34.26    1.90
   7   8   6   35.74    1.90
   7   8   7   22.51    1.49
   7   8   7   22.69    1.42
   7   8   8   80.46    2.48
   7   8   8   80.14    2.30
   7   8   9  230.75    3.48
   7   8   9  206.56    2.91
  -7  -9   1   20.65    1.03
   7   9  -1   17.83    0.87
  -7  -9   0  220.32    3.47
   7   9   0  223.81    3.61
  -7  -9  -1  120.52    2.64
   7   9   1  124.05    2.98
   7   9   2   52.85    1.75
  -7  -9  -2   54.16    1.74
   7   9   2   52.07    2.07
   7   9   3   29.10    1.39
  -7  -9  -3   28.19    1.23
   7   9   3   27.32    1.32
   7   9   3   27.22    1.55
   7   9   4   81.18    2.29
   7   9   4   78.48    2.37
   7   9   4   81.51    2.61
   7   9   5  129.17    3.09
   7   9   5  135.16    3.22
   7   9   6   30.34    1.50
   7   9   6   32.06    1.51
   7   9   7   95.18    2.42
   7   9   7   92.72    2.22
   7   9   8   51.70    1.55
   7  10   2   40.40    1.27
  -7 -10  -3   20.64    0.92
   7  10   3   26.83    1.11
  -7 -10  -4   16.12    0.78
   7  10   4   27.56    1.12
  -8   3   5   67.90    1.65
  -8   3   5   85.96    1.79
   8  -3  -4    0.33    0.21
  -8   3   4    0.09    0.31
  -8   3   3   11.88    0.79
  -8   3   3   11.73    0.91
  -8   3   2   13.33    0.92
  -8   3   2   13.88    0.80
  -8   3   1  181.43    3.17
   8  -3  -1  198.48    3.37
  -8   3   0    3.04    0.51
   8  -3   0    3.59    0.52
  -8   3  -1   36.73    1.51
   8  -3   1   38.79    1.35
  -8   3  -2   20.32    1.10
  -8   3  -3   82.29    1.87
  -8   2   6   74.72    1.93
  -8   2   6   77.44    1.92
  -8   2   6   79.72    1.71
   8  -2  -5   67.71    1.96
   8  -2  -5   68.90    1.93
  -8   2   5   60.19    1.99
   8  -2  -5   62.59    1.54
  -8   2   5   60.01    1.88
   8  -2  -4   42.34    1.62
   8  -2  -4   42.70    1.62
   8  -2  -4   45.41    1.63
  -8   2   4   41.44    1.76
   8  -2  -3   91.61    2.33
   8  -2  -3   91.89    2.40
   8  -2  -3   96.32    2.61
   8  -2  -2  237.38    3.75
   8  -2  -2  247.59    4.41
   8  -2  -2  241.01    4.61
  -8   2   1    3.20    0.58
   8  -2  -1    3.84    0.68
   8  -2  -1    3.70    0.67
   8  -2   0    1.75    0.53
   8  -2   0    0.62    0.41
   8  -2   1   99.73    2.49
   8  -2   1   97.76    2.69
   8  -2   2   15.64    1.02
   8  -2   2   17.45    1.07
   8  -2   3   24.29    1.23
   8  -2   3   20.64    0.96
  -8   2  -3   22.70    1.16
   8  -2   4  105.00    2.30
  -8   2  -4   97.45    2.20
   8  -2   5    3.72    0.43
   8  -1  -7    2.13    0.40
  -8   1   7    1.36    0.41
   8  -1  -6   15.65    1.01
  -8   1   6   14.47    1.09
  -8   1   6   12.27    0.89
  -8   1   6   13.31    0.78
   8  -1  -6   15.58    1.05
   8  -1  -5    6.47    0.81
   8  -1  -5    5.53    0.74
  -8   1   5    4.84    0.69
   8  -1  -5    5.51    0.59
  -8   1   5    4.61    0.61
   8  -1  -4   70.17    2.46
   8  -1  -4   73.78    2.49
   8  -1  -4   75.58    2.36
  -8   1   4   69.85    2.42
   8  -1  -3   24.12    1.48
   8  -1  -3   23.03    1.46
   8  -1  -3   24.06    1.49
   8  -1  -2   94.65    2.76
   8  -1  -2   93.04    2.86
   8  -1  -2  100.47    3.10
   8  -1  -1    0.31    0.38
   8  -1  -1    0.27    0.51
   8  -1  -1    0.09    0.43
   8  -1   0   29.72    1.52
   8  -1   0   33.78    1.71
   8  -1   0   32.24    1.81
   8  -1   0   30.36    1.78
   8  -1   1  203.94    4.26
   8  -1   1  207.71    4.39
   8  -1   2   51.17    2.18
   8  -1   2   50.62    2.08
   8  -1   3   13.74    1.15
   8  -1   3   12.92    0.98
   8  -1   4  113.78    3.01
   8  -1   5   16.08    1.09
   8  -1   5   14.00    0.85
   8  -1   6   10.67    0.78
  -8   1  -6    8.81    0.71
   8   0  -7   12.11    0.79
  -8   0   7   10.09    0.82
   8   0  -7   10.49    0.69
   8   0  -6    0.67    0.39
  -8   0   6    0.12    0.40
   8   0  -6    0.60    0.36
  -8   0   6    0.10    0.26
   8   0  -5   34.17    1.81
   8   0  -5   35.50    1.78
  -8   0   5   33.18    1.65
   8   0  -5   33.81    1.48
   8   0  -4    1.97    0.61
   8   0  -4    1.67    0.59
   8   0  -4    1.75    0.54
  -8   0   4    1.48    0.45
   8   0  -3   23.31    1.59
   8   0  -3   23.27    1.62
   8   0  -3   24.38    1.58
   8   0  -2    0.74    0.48
   8   0  -2    0.45    0.45
   8   0  -2    0.37    0.39
   8   0  -2    0.80    0.46
   8   0  -1   48.16    2.28
   8   0  -1   48.40    2.16
   8   0  -1   47.74    2.35
   8   0   0  220.85    4.66
   8   0   0  225.77    4.81
   8   0   0  233.69    5.07
   8   0   1   25.94    1.57
   8   0   1   27.53    1.76
   8   0   1   26.92    1.79
   8   0   1   28.00    1.78
   8   0   2  236.54    5.08
   8   0   2  234.22    5.01
   8   0   2  229.27    4.75
   8   0   3  250.14    4.96
   8   0   3  239.53    4.49
   8   0   4   49.37    2.27
   8   0   4   48.82    2.09
   8   0   5  128.80    3.39
   8   0   5  125.49    3.04
   8   0   6    8.22    0.85
   8   0   6    8.16    0.70
   8   0   6    8.61    0.75
   8   0   7    9.56    0.77
   8   0   7    8.61    0.65
   8   1  -7  214.63    3.08
  -8  -1   7  206.48    3.33
  -8  -1   7  212.23    3.48
   8   1  -7  217.25    3.40
   8   1  -6   91.14    2.52
  -8  -1   6   90.36    2.67
   8   1  -6   92.47    2.58
   8   1  -5   58.40    2.31
   8   1  -5   56.34    2.15
   8   1  -5   56.18    1.95
   8   1  -4  202.01    4.55
   8   1  -4  190.53    4.08
   8   1  -4  194.53    4.16
   8   1  -3  164.80    4.32
   8   1  -3  172.26    3.87
   8   1  -3  170.43    4.19
   8   1  -3  162.03    4.32
   8   1  -2    4.71    0.90
   8   1  -2    6.15    0.83
   8   1  -2    5.34    0.88
   8   1  -2    5.85    0.91
   8   1  -1  104.72    3.49
   8   1  -1  111.96    3.49
   8   1  -1  101.26    3.47
   8   1   0   38.64    2.12
   8   1   0   39.40    2.15
   8   1   0   38.58    2.26
   8   1   0   42.11    2.25
   8   1   1   73.78    2.82
   8   1   1   73.69    2.97
   8   1   1   75.50    3.11
   8   1   1   72.60    2.90
   8   1   2    0.70    0.53
   8   1   2    1.83    0.61
   8   1   2    1.03    0.54
   8   1   2    1.20    0.52
   8   1   3  248.31    4.70
   8   1   3  260.23    5.57
   8   1   3  259.06    5.52
   8   1   3  253.62    4.87
   8   1   4   40.23    2.17
   8   1   4   41.49    2.17
   8   1   5  241.38    4.98
   8   1   5  235.05    4.87
   8   1   6  209.33    4.27
   8   1   6  213.62    4.24
   8   1   6  205.41    3.75
   8   1   7    0.65    0.40
   8   1   7    1.21    0.41
   8   1   7    0.51    0.34
   8   1   8  372.87    3.74
   8   1   8  375.13    3.88
   8   2  -7    5.43    0.50
  -8  -2   7    4.08    0.44
  -8  -2   7    6.13    0.62
   8   2  -7    5.69    0.51
   8   2  -6   18.83    1.06
   8   2  -6   18.83    1.10
  -8  -2   6   17.63    1.13
   8   2  -6   18.73    1.27
   8   2  -6   17.31    1.01
   8   2  -5    1.77    0.49
   8   2  -5    1.73    0.53
  -8  -2   5    1.53    0.53
   8   2  -5    1.58    0.56
   8   2  -5    1.26    0.49
   8   2  -4  986.57    8.81
   8   2  -4  983.22    9.97
   8   2  -4  967.33    9.81
   8   2  -4  974.84    9.30
   8   2  -3  192.87    4.68
   8   2  -3  188.36    4.39
   8   2  -3  199.86    4.57
   8   2  -2    6.30    0.97
   8   2  -2    9.77    1.13
   8   2  -2    8.46    1.07
   8   2  -1  244.15    5.40
   8   2  -1  245.19    5.33
   8   2  -1  246.00    5.41
   8   2   0   41.25    2.25
   8   2   0   43.29    2.32
   8   2   0   42.22    2.41
   8   2   0   41.39    2.25
   8   2   1  319.43    6.09
   8   2   1  338.72    6.48
   8   2   1  329.72    6.60
   8   2   1  324.41    6.12
   8   2   2   17.77    1.48
   8   2   2   19.88    1.65
   8   2   2   20.93    1.72
   8   2   2   20.35    1.54
   8   2   3   64.43    2.63
   8   2   3   72.20    3.02
   8   2   3   61.78    2.76
   8   2   3   71.96    3.06
   8   2   3   64.37    2.55
   8   2   4    8.50    1.09
   8   2   4    7.37    1.06
   8   2   4    6.21    0.92
   8   2   4    6.29    0.97
   8   2   5   25.31    1.73
   8   2   5   26.64    1.84
   8   2   5   27.14    1.82
   8   2   6  117.12    3.34
   8   2   6  118.35    3.52
   8   2   7   26.61    1.45
   8   2   7   29.53    1.65
   8   2   7   27.59    1.38
   8   2   8    3.74    0.50
   8   2   8    3.95    0.59
   8   2   8    3.06    0.49
   8   2   9  139.81    2.33
   8   3  -7   38.80    1.28
  -8  -3   7   34.40    1.12
  -8  -3   7   39.67    1.45
   8   3  -7   34.49    1.13
   8   3  -6   34.89    1.51
  -8  -3   6   34.91    1.46
   8   3  -6   35.46    1.43
   8   3  -5  349.44    5.25
   8   3  -5  354.04    4.96
  -8  -3   5  342.98    5.09
   8   3  -5  348.42    5.71
   8   3  -5  356.75    4.72
   8   3  -5  341.16    4.78
   8   3  -4  176.74    4.01
   8   3  -4  185.45    4.11
   8   3  -4  174.22    4.31
   8   3  -4  178.15    3.94
   8   3  -3  407.65    6.30
   8   3  -3  403.24    6.51
   8   3  -3  404.36    6.42
   8   3  -2   69.78    2.65
   8   3  -2   67.57    2.82
   8   3  -2   66.29    2.76
   8   3  -1  660.69    8.12
   8   3  -1  659.58    8.87
   8   3  -1  664.98    8.97
   8   3  -1  659.03    8.80
   8   3   0   78.23    2.78
   8   3   0   73.85    3.01
   8   3   0   74.56    3.06
   8   3   0   70.45    3.08
   8   3   0   70.81    2.92
   8   3   1   28.65    1.68
   8   3   1   27.81    1.87
   8   3   1   29.05    1.96
   8   3   1   28.19    1.99
   8   3   1   27.38    1.81
   8   3   2  418.45    7.01
   8   3   2  432.37    7.38
   8   3   2  422.66    7.44
   8   3   2  414.39    6.77
   8   3   3   78.01    3.03
   8   3   3   80.28    3.18
   8   3   3   75.76    2.98
   8   3   3   82.07    3.29
   8   3   3   78.17    2.86
   8   3   3   75.77    2.80
   8   3   4  903.51    9.81
   8   3   4  909.79   10.44
   8   3   4  928.70   10.50
   8   3   4  926.87   10.07
   8   3   5   27.75    1.78
   8   3   5   28.73    1.92
   8   3   5   28.05    1.92
   8   3   5   30.11    1.85
   8   3   6    7.14    1.18
   8   3   6    6.14    0.84
   8   3   6    5.85    0.93
   8   3   6    6.78    0.98
   8   3   6    5.66    0.86
   8   3   7  161.73    3.49
   8   3   7  169.79    4.19
   8   3   7  172.80    4.20
   8   3   8    0.19    0.38
   8   3   8    0.18    0.32
   8   3   9    3.40    0.55
   8   3   9    2.90    0.42
  -8  -4   7   70.96    1.61
   8   4  -7   80.70    1.67
   8   4  -6    0.89    0.41
  -8  -4   6    1.98    0.54
   8   4  -6    0.77    0.36
   8   4  -5  177.86    3.70
   8   4  -5  167.60    3.42
   8   4  -5  174.05    3.36
   8   4  -4    0.53    0.45
   8   4  -4    0.38    0.43
   8   4  -4    0.38    0.35
   8   4  -3   72.22    2.74
   8   4  -3   68.66    2.52
   8   4  -2   30.92    1.87
   8   4  -2   29.13    1.78
   8   4  -2   26.97    1.78
   8   4  -1   82.43    3.03
   8   4  -1   80.83    3.04
   8   4  -1   79.07    3.06
   8   4   0  520.65    7.54
   8   4   0  503.00    7.67
   8   4   0  504.38    7.95
   8   4   0  487.12    7.62
   8   4   0  494.75    7.59
   8   4   1  233.46    5.05
   8   4   1  225.71    5.22
   8   4   1  230.03    5.38
   8   4   1  233.32    5.34
   8   4   1  221.66    5.04
   8   4   2  351.63    6.10
   8   4   2  342.18    6.40
   8   4   2  343.73    6.56
   8   4   2  343.01    6.57
   8   4   2  338.82    6.08
   8   4   3    6.38    0.85
   8   4   3    8.12    1.11
   8   4   3    6.99    1.04
   8   4   3    8.17    1.02
   8   4   3    8.28    1.10
   8   4   3    8.13    1.02
   8   4   4   93.77    3.09
   8   4   4   86.68    3.18
   8   4   4   91.82    3.30
   8   4   4   93.25    3.43
   8   4   4   95.64    3.33
   8   4   5  115.61    3.32
   8   4   5  109.28    3.38
   8   4   5  107.40    3.61
   8   4   5  110.34    3.71
   8   4   5  109.72    3.56
   8   4   6   11.69    1.51
   8   4   6   10.42    1.01
   8   4   6   11.34    1.22
   8   4   6   14.05    1.34
   8   4   6   12.33    1.23
   8   4   7   55.28    2.43
   8   4   7   54.76    2.42
   8   4   7   53.72    2.35
   8   4   8    0.07    0.44
   8   4   8    0.11    0.43
   8   4   9   95.42    2.49
   8   4   9   83.22    1.84
   8   4  10  121.90    2.12
  -8  -5   6   12.71    0.76
   8   5  -6   13.28    0.73
   8   5  -5  110.87    2.73
   8   5  -5  108.79    2.45
  -8  -5   5  102.00    2.34
   8   5  -4    2.50    0.63
  -8  -5   4    2.58    0.56
   8   5  -4    1.93    0.46
   8   5  -3   72.93    2.69
   8   5  -3   70.97    2.31
   8   5  -2   55.84    2.46
   8   5  -2   50.11    2.09
   8   5  -1  102.03    3.39
   8   5  -1   99.94    3.16
   8   5  -1  105.65    3.53
   8   5   0   90.22    3.23
   8   5   0   85.16    3.04
   8   5   0   96.03    3.37
   8   5   1   13.14    1.30
   8   5   1   12.38    1.23
   8   5   1   12.75    1.25
   8   5   1   14.79    1.43
   8   5   2  338.73    6.21
   8   5   2  331.62    6.21
   8   5   2  339.15    6.36
   8   5   2  327.76    6.05
   8   5   2  345.34    6.06
   8   5   2  329.00    5.96
   8   5   3  354.37    6.29
   8   5   3  370.29    6.60
   8   5   3  352.77    6.35
   8   5   3  367.33    6.26
   8   5   3  361.75    6.41
   8   5   3  364.59    6.44
   8   5   3  345.01    5.89
   8   5   4   19.16    1.54
   8   5   4   19.42    1.49
   8   5   4   20.94    1.58
   8   5   4   21.33    1.62
   8   5   4   20.96    1.61
   8   5   5  125.78    3.62
   8   5   5  124.78    3.99
   8   5   5  118.37    3.35
   8   5   5  119.80    3.74
   8   5   5  120.03    3.69
   8   5   5  119.51    3.71
   8   5   6  144.08    4.03
   8   5   6  144.74    3.94
   8   5   6  144.49    3.99
   8   5   7   62.36    2.56
   8   5   7   62.15    2.48
   8   5   7   61.51    2.51
   8   5   8   66.59    2.41
   8   5   8   61.65    2.26
   8   5   8   62.89    2.31
   8   5   9   15.18    1.02
   8   5   9   15.50    1.02
   8   6  -5    7.51    0.65
   8   6  -5    6.99    0.58
  -8  -6   4   21.36    1.03
   8   6  -4   24.52    1.31
   8   6  -4   23.54    1.16
   8   6  -3   13.03    1.11
   8   6  -3   11.35    0.90
   8   6  -2    0.86    0.50
   8   6  -2    1.73    0.43
   8   6  -1   25.64    1.67
   8   6   0  110.48    3.50
   8   6   0  115.24    3.27
   8   6   1   34.82    2.01
   8   6   1   32.50    1.81
   8   6   2   43.63    2.25
   8   6   2   68.90    2.81
   8   6   2   45.43    2.22
   8   6   2   69.07    2.92
   8   6   3    9.50    1.13
   8   6   3   45.53    2.43
   8   6   3   11.30    1.11
   8   6   3   12.38    1.23
   8   6   3   40.60    2.15
   8   6   4    5.03    0.91
   8   6   4    4.04    0.73
   8   6   4    5.02    0.88
   8   6   5    9.39    1.07
   8   6   5   10.15    0.99
   8   6   5   10.12    1.16
   8   6   6    0.89    0.53
   8   6   6    0.68    0.40
   8   6   6    0.43    0.53
   8   6   7    4.67    0.79
   8   6   7    5.74    0.76
   8   6   7    5.08    0.80
   8   6   8   76.08    2.46
   8   6   8   75.82    2.20
   8   6   8   78.94    2.49
   8   6   9  128.29    2.71
   8   6   9  102.21    2.10
   8   7  -4    4.76    0.50
  -8  -7   4    3.69    0.46
   8   7  -3   -0.19    0.31
   8   7  -3    0.71    0.35
   8   7  -2  109.74    2.84
   8   7  -2  106.88    2.43
   8   7  -1   28.16    1.58
   8   7   0    0.51    0.50
   8   7   0    0.26    0.39
   8   7   1    5.39    0.86
   8   7   1    7.39    0.89
   8   7   2   31.17    1.84
   8   7   2   34.14    1.84
   8   7   3    9.72    1.13
   8   7   3   11.31    1.03
   8   7   3   12.37    1.19
   8   7   4   79.44    2.86
   8   7   4   72.53    2.61
   8   7   4   74.91    2.78
   8   7   5   12.15    1.13
   8   7   5    9.69    1.10
   8   7   6    1.07    0.50
   8   7   6    1.42    0.58
   8   7   7   74.95    2.48
   8   7   7   72.78    2.44
   8   7   8   44.27    1.73
   8   7   8   42.67    1.67
   8   7   9   13.15    0.82
   8   8  -2    4.33    0.48
   8   8  -1   55.33    1.76
   8   8  -1   51.32    1.40
   8   8   0    4.86    0.65
   8   8   0    6.34    0.65
   8   8   1   51.44    1.96
   8   8   1   54.72    1.95
   8   8   2    4.59    0.72
   8   8   2    4.69    0.73
   8   8   3   19.50    1.35
   8   8   3   17.28    1.27
   8   8   4  267.73    4.29
   8   8   4  275.30    4.80
   8   8   5    7.63    0.83
   8   8   5    6.93    0.86
   8   8   6  155.94    3.28
   8   8   6  159.88    3.39
   8   8   7  207.96    3.53
   8   8   7  206.20    3.52
   8   8   8   15.61    0.89
   8   8   8   16.68    0.88
   8   9   2   18.43    0.93
   8   9   2   17.19    0.98
   8   9   3    5.63    0.68
   8   9   3    3.84    0.59
   8   9   4   50.55    1.72
   8   9   5   11.93    0.85
   8   9   6   31.72    1.21
   9  -2  -2    2.75    0.39
   9  -2  -1   18.96    0.87
   9  -2   0   36.16    1.13
   9  -1  -4   29.64    1.07
   9  -1  -3    0.04    0.31
   9  -1  -3    0.58    0.28
  -9   1   3    0.22    0.27
   9  -1  -2   20.04    0.96
   9  -1  -2   22.48    1.15
   9  -1  -1  150.08    3.01
   9  -1   0   71.08    2.06
   9  -1   1    1.75    0.35
  -9   1  -1    2.09    0.38
   9  -1   1    2.82    0.49
   9  -1   2   15.06    0.85
   9  -1   2   15.08    0.81
   9  -1   3   38.74    1.28
   9   0  -5   93.74    2.00
  -9   0   5   54.13    1.61
   9   0  -4   46.23    1.62
   9   0  -4   42.77    1.40
   9   0  -3  115.00    2.71
   9   0  -3  117.69    2.69
   9   0  -2    1.11    0.45
   9   0  -2    0.70    0.43
   9   0  -1   78.52    2.31
   9   0  -1   83.36    2.17
   9   0  -1   83.44    2.55
   9   0   0    7.65    0.75
   9   0   0    8.99    0.81
   9   0   0    9.88    0.93
   9   0   1   15.11    1.07
   9   0   1   13.73    1.05
   9   0   2  119.26    2.92
   9   0   2  118.92    2.71
   9   0   3   19.24    1.18
   9   0   3   18.05    0.93
   9   0   4   19.21    1.11
   9   0   5    1.88    0.41
   9   1  -5  116.28    2.39
  -9  -1   5   78.29    1.99
   9   1  -4    5.45    0.68
   9   1  -4    3.45    0.51
   9   1  -3    1.46    0.50
   9   1  -3    0.27    0.48
   9   1  -2   64.16    2.33
   9   1  -2   69.53    2.14
   9   1  -2   64.35    2.29
   9   1  -1  285.71    4.91
   9   1  -1  291.54    4.72
   9   1  -1  301.55    5.15
   9   1   0   93.23    2.79
   9   1   0   97.92    2.89
   9   1   0   99.14    2.98
   9   1   1   41.11    1.82
   9   1   1   44.17    2.01
   9   1   1   45.77    2.01
   9   1   2    2.37    0.52
   9   1   2    2.50    0.58
   9   1   2    2.29    0.62
   9   1   2    3.59    0.63
   9   1   3  107.96    3.05
   9   1   3  104.76    2.95
   9   1   3   99.67    2.50
   9   1   4    1.43    0.50
   9   1   4    0.59    0.38
   9   1   5  139.47    3.01
   9   1   5  140.11    2.83
   9   1   6   14.61    0.89
   9   1   6   14.08    0.75
   9   2  -5   32.24    1.25
  -9  -2   5   28.64    1.13
   9   2  -4   17.82    1.14
   9   2  -4   19.29    1.08
   9   2  -3   92.56    2.73
   9   2  -3   92.55    2.65
   9   2  -2  158.07    3.75
   9   2  -2  156.33    3.69
   9   2  -1    8.11    0.96
   9   2  -1    7.07    0.91
   9   2  -1    7.26    0.93
   9   2   0    4.27    0.78
   9   2   0    4.26    0.75
   9   2   0    4.65    0.78
   9   2   1   81.88    2.78
   9   2   1   88.95    3.00
   9   2   1   89.87    3.16
   9   2   1   89.88    2.90
   9   2   2   75.94    2.58
   9   2   2   82.05    2.90
   9   2   2   82.29    2.97
   9   2   2   77.37    2.59
   9   2   3  343.25    5.11
   9   2   3  369.34    5.97
   9   2   3  363.88    6.02
   9   2   3  353.21    5.05
   9   2   4  633.50    6.26
   9   2   4  653.04    7.59
   9   2   4  655.77    7.75
   9   2   5  261.61    4.45
   9   2   5  265.18    4.58
   9   2   6  102.87    2.47
   9   2   6  105.03    2.59
   9   2   7  108.44    1.97
   9   2   7  122.41    2.31
   9   3  -5  117.38    2.00
   9   3  -4    9.80    0.82
   9   3  -4   19.01    1.12
   9   3  -3  194.45    3.84
   9   3  -3  197.15    3.81
   9   3  -2    4.60    0.74
   9   3  -2    3.04    0.65
   9   3  -1   26.54    1.65
   9   3  -1   28.03    1.69
   9   3   0    2.54    0.67
   9   3   0    3.33    0.75
   9   3   0    2.97    0.71
   9   3   1   18.92    1.43
   9   3   1   18.10    1.45
   9   3   1   18.19    1.49
   9   3   1   17.97    1.37
   9   3   2  222.19    4.64
   9   3   2  237.00    5.02
   9   3   2  222.55    4.98
   9   3   2  220.17    4.44
   9   3   3    6.92    0.96
   9   3   3    6.64    0.96
   9   3   3    6.42    0.80
   9   3   4   82.91    2.79
   9   3   4   78.34    2.82
   9   3   5    3.78    0.67
   9   3   5    3.72    0.74
   9   3   6   19.47    1.16
   9   3   6   18.65    1.26
   9   3   7  124.81    2.23
   9   3   7  149.38    2.99
   9   3   8    5.32    0.50
   9   4  -5   28.33    1.00
  -9  -4   5   25.12    0.99
   9   4  -4   14.44    0.92
   9   4  -4    8.79    0.64
   9   4  -3  256.37    4.04
   9   4  -3  247.78    3.95
   9   4  -2   76.96    2.37
   9   4  -2   74.54    2.46
   9   4  -1  417.22    5.69
   9   4  -1  415.29    6.12
   9   4  -1  420.97    6.25
   9   4   0   29.20    1.58
   9   4   0   26.46    1.66
   9   4   0   27.99    1.70
   9   4   1   16.73    1.22
   9   4   1   12.69    1.22
   9   4   1   16.81    1.44
   9   4   1   13.70    1.21
   9   4   2   56.48    2.12
   9   4   2   62.83    2.53
   9   4   2   60.69    2.55
   9   4   2   60.07    2.55
   9   4   2   56.91    2.28
   9   4   3   38.27    2.00
   9   4   3   40.71    2.10
   9   4   3   36.61    1.74
   9   4   4  173.59    3.99
   9   4   4  168.03    3.76
   9   4   4  175.33    4.19
   9   4   4  170.01    3.62
   9   4   5   19.55    1.28
   9   4   5   18.93    1.31
   9   4   5   20.08    1.41
   9   4   6    6.97    0.73
   9   4   6    6.27    0.80
   9   4   6    7.32    0.85
   9   4   7   22.98    1.28
   9   4   8   15.57    0.90
   9   5  -4  135.90    2.51
   9   5  -3   52.94    1.82
   9   5  -2   80.81    2.43
   9   5  -2   79.90    2.23
   9   5  -1    1.14    0.50
   9   5  -1    1.58    0.53
   9   5   0  102.87    2.98
   9   5   0  102.87    3.00
   9   5   1   51.68    2.14
   9   5   1   53.92    2.31
   9   5   2   65.45    2.40
   9   5   2   87.01    2.96
   9   5   2   79.65    2.91
   9   5   2   69.35    2.53
   9   5   2   79.27    2.74
   9   5   3  119.69    3.15
   9   5   3  118.19    3.33
   9   5   3  118.57    3.31
   9   5   3  118.52    2.99
   9   5   3  130.65    3.22
   9   5   4   45.39    1.94
   9   5   4   44.06    1.95
   9   5   4   39.87    1.79
   9   5   4   43.10    1.98
   9   5   4   41.48    1.83
   9   5   5   88.39    2.89
   9   5   5   93.05    2.55
   9   5   5   90.09    2.70
   9   5   5   94.53    2.82
   9   5   5   91.83    2.70
   9   5   6    2.67    0.58
   9   5   6    1.78    0.50
   9   5   6    1.83    0.53
   9   5   7    1.58    0.49
   9   5   7    1.51    0.46
   9   5   8   47.54    1.45
   9   6  -3    0.72    0.39
   9   6  -2   76.54    2.20
   9   6  -1   34.55    1.63
   9   6  -1   43.29    1.59
   9   6   0    0.14    0.55
   9   6   0   17.08    1.34
   9   6   1    0.73    0.58
   9   6   1   21.96    1.61
   9   6   2   -0.93    0.66
   9   6   2   31.03    1.83
   9   6   3   90.53    2.74
   9   6   3   88.35    2.55
   9   6   4    4.76    1.32
   9   6   4    4.97    0.66
   9   6   4    4.94    0.65
   9   6   4    5.26    0.72
   9   6   5    0.47    0.43
   9   6   5    0.69    0.38
   9   6   5    0.78    0.46
   9   6   6  136.33    3.01
   9   6   6  128.76    2.65
   9   6   6  132.94    3.00
   9   6   7    6.91    0.71
   9   6   7    5.04    0.53
   9   6   7    5.47    0.66
   9   6   8    1.40    0.38
   9   7  -2    1.46    0.41
   9   7  -1   52.63    1.73
   9   7   0   19.06    1.15
   9   7   1   31.59    1.52
   9   7   2   82.31    2.46
   9   7   2   78.08    2.06
   9   7   3    3.86    0.79
   9   7   3    1.71    0.47
   9   7   4   14.24    1.21
   9   7   4    7.25    0.77
   9   7   5   34.16    1.37
   9   7   5   36.44    1.56
   9   7   6  324.50    4.04
   9   7   6  333.68    4.31
   9   7   7   51.19    1.49
   9   7   7   55.44    1.59
   9   8   0   20.84    0.94
   9   8   1   27.96    1.19
   9   8   2   85.24    2.09
   9   8   3    9.72    0.87
   9   8   3    4.12    0.53
   9   8   4   54.70    1.73
   9   8   4   47.01    1.49
   9   8   5   20.55    1.00
  10   1  -2    6.30    0.54
  10   1  -2    6.15    0.54
  10   1  -1    0.32    0.35
  10   1  -1    1.13    0.36
  10   1   0   41.98    1.24
  10   1   0   48.93    1.49
  10   1   1   42.25    1.31
  10   1   1   40.31    1.30
  10   1   2    4.12    0.47
  10   1   3    0.28    0.24
  10   2  -3    1.49    0.34
  10   2  -2   44.93    1.46
  10   2  -2   45.92    1.45
  10   2  -1    6.64    0.67
  10   2  -1    7.63    0.71
  10   2   0    0.67    0.38
  10   2   0    0.52    0.37
  10   2   1   39.11    1.43
  10   2   1   39.15    1.51
  10   2   1   36.05    1.39
  10   2   2   53.65    1.75
  10   2   2   47.68    1.46
  10   2   3   55.69    1.72
  10   2   4    2.43    0.44
  10   3  -3  170.80    2.41
  10   3  -2   -0.41    0.39
  10   3  -2    7.46    0.73
  10   3  -1  174.74    3.12
  10   3  -1  172.92    3.11
  10   3   0  171.66    3.25
  10   3   0  178.90    3.24
  10   3   1  114.22    2.66
  10   3   1  119.79    2.80
  10   3   2   70.42    2.15
  10   3   2   66.15    1.84
  10   3   3   43.12    1.63
  10   3   3   35.83    1.16
  10   3   4   12.92    0.88
  10   3   5   20.74    0.93
  10   3   5   23.45    1.06
  10   4  -2    1.90    0.46
  10   4  -2   18.95    1.07
  10   4  -1   15.00    0.95
  10   4  -1   29.67    1.36
  10   4   0   55.17    1.85
  10   4   0   61.32    1.96
  10   4   1   32.14    1.52
  10   4   1   28.94    1.38
  10   4   2   90.09    2.44
  10   4   2   84.69    2.42
  10   4   3   55.79    1.90
  10   4   3   51.91    1.50
  10   4   4  167.35    2.87
  10   4   4  170.30    2.99
  10   4   4  169.00    3.13
  10   4   5  443.73    4.08
  10   4   5  489.29    4.86
  10   5  -1   14.11    0.86
  10   5   0    1.92    0.42
  10   5   0   16.85    1.13
  10   5   1   47.75    1.74
  10   5   1   47.44    1.74
  10   5   2   24.77    1.48
  10   5   3   45.24    1.81
  10   6   0    2.73    0.44
  10   6   1  231.82    2.98
  10   6   1  244.41    3.20
  10   6   2    2.99    0.52
  10   6   2   -0.93    0.78
  10   6   3   26.56    1.03
   0   0   0    0.00    0.00
;
_shelx_hkl_checksum              26723
loop_
_space_group_symop_operation_xyz
'x, y, z'
'-x, -y, -z'
loop_
_atom_site_label
_atom_site_type_symbol
_atom_site_fract_x
_atom_site_fract_y
_atom_site_fract_z
_atom_site_U_iso_or_equiv
_atom_site_adp_type
_atom_site_occupancy
_atom_site_site_symmetry_order
_atom_site_calc_flag
_atom_site_refinement_flags_posn
_atom_site_refinement_flags_adp
O1 O 0.69329(14) -0.41901(13) 0.54331(10) 0.0291(2) Uani 1 1 d . .
O2 O 0.79195(14) -0.07012(14) 0.40866(11) 0.0323(3) Uani 1 1 d . .
N1 N 0.33947(16) -0.24816(16) 0.39421(11) 0.0231(3) Uani 1 1 d . .
H1N H 0.352(2) -0.354(3) 0.4284(18) 0.032(5) Uiso 1 1 d . .
N2 N 0.42320(16) 0.11257(15) 0.27087(11) 0.0221(2) Uani 1 1 d . .
H2N H 0.329(3) 0.135(2) 0.2434(18) 0.029(5) Uiso 1 1 d . .
C1 C 0.46622(18) -0.19364(17) 0.40220(12) 0.0206(3) Uani 1 1 d . .
C2 C 0.62545(18) -0.27606(17) 0.47038(12) 0.0223(3) Uani 1 1 d . .
C3 C 0.67054(18) -0.11599(18) 0.41006(13) 0.0228(3) Uani 1 1 d . .
C4 C 0.50338(17) -0.03968(17) 0.34675(12) 0.0201(3) Uani 1 1 d . .
C5 C 0.50891(19) 0.23767(17) 0.21265(13) 0.0233(3) Uani 1 1 d . .
H5A H 0.6024 0.2197 0.2686 0.028 Uiso 1 1 calc R U
H5B H 0.4283 0.3557 0.2047 0.028 Uiso 1 1 calc R U
C6 C 0.57831(17) 0.21930(17) 0.08199(13) 0.0205(3) Uani 1 1 d . .
C7 C 0.73165(19) 0.09396(19) 0.06935(14) 0.0278(3) Uani 1 1 d . .
H7 H 0.7953 0.0212 0.1435 0.033 Uiso 1 1 calc R U
C8 C 0.79295(19) 0.0738(2) -0.05024(14) 0.0273(3) Uani 1 1 d . .
H8 H 0.8964 -0.0148 -0.0569 0.033 Uiso 1 1 calc R U
C9 C 0.70470(17) 0.18173(17) -0.16046(13) 0.0201(3) Uani 1 1 d . .
C10 C 0.55005(19) 0.30540(18) -0.14767(13) 0.0242(3) Uani 1 1 d . .
H10 H 0.4870 0.3789 -0.2219 0.029 Uiso 1 1 calc R U
C11 C 0.48669(18) 0.32272(18) -0.02757(14) 0.0240(3) Uani 1 1 d . .
H11 H 0.3796 0.4062 -0.0204 0.029 Uiso 1 1 calc R U
C12 C 0.78162(18) 0.16225(18) -0.28989(13) 0.0234(3) Uani 1 1 d . .
H12A H 0.8750 0.2101 -0.3079 0.028 Uiso 1 1 calc R U
H12B H 0.8302 0.0382 -0.2863 0.028 Uiso 1 1 calc R U
S1 S -0.05660(5) 0.39395(5) 0.19015(4) 0.02892(12) Uani 1 1 d . .
O3 O 0.10240(15) 0.27700(15) 0.14628(10) 0.0337(3) Uani 1 1 d . .
C13 C -0.0736(3) 0.3048(3) 0.35548(19) 0.0574(6) Uani 1 1 d . .
H13A H -0.1765 0.3773 0.3888 0.086 Uiso 1 1 calc R U
H13B H -0.0788 0.1887 0.3704 0.086 Uiso 1 1 calc R U
H13C H 0.0250 0.2987 0.3992 0.086 Uiso 1 1 calc R U
C14 C -0.0123(3) 0.5789(3) 0.1967(2) 0.0540(5) Uani 1 1 d . .
H14A H -0.1134 0.6598 0.2251 0.081 Uiso 1 1 calc R U
H14B H 0.0799 0.5445 0.2570 0.081 Uiso 1 1 calc R U
H14C H 0.0210 0.6345 0.1115 0.081 Uiso 1 1 calc R U
loop_
_atom_site_aniso_label
_atom_site_aniso_U_11
_atom_site_aniso_U_22
_atom_site_aniso_U_33
_atom_site_aniso_U_23
_atom_site_aniso_U_13
_atom_site_aniso_U_12
O1 0.0384(6) 0.0196(5) 0.0273(5) -0.0017(4) -0.0062(4) -0.0091(4)
O2 0.0310(6) 0.0299(6) 0.0370(6) -0.0028(5) -0.0046(5) -0.0149(5)
N1 0.0303(6) 0.0200(6) 0.0200(5) -0.0030(4) 0.0022(5) -0.0121(5)
N2 0.0241(6) 0.0193(6) 0.0222(6) -0.0033(4) 0.0010(5) -0.0084(5)
C1 0.0283(7) 0.0185(6) 0.0153(6) -0.0061(5) 0.0044(5) -0.0084(5)
C2 0.0312(7) 0.0196(6) 0.0177(6) -0.0071(5) 0.0018(5) -0.0092(6)
C3 0.0287(7) 0.0199(6) 0.0201(6) -0.0063(5) 0.0010(5) -0.0081(5)
C4 0.0260(7) 0.0191(6) 0.0170(6) -0.0074(5) 0.0041(5) -0.0089(5)
C5 0.0307(7) 0.0179(6) 0.0227(7) -0.0048(5) 0.0027(5) -0.0109(5)
C6 0.0252(7) 0.0166(6) 0.0214(6) -0.0042(5) 0.0013(5) -0.0103(5)
C7 0.0273(7) 0.0263(7) 0.0233(7) -0.0028(6) -0.0041(6) -0.0031(6)
C8 0.0217(7) 0.0278(7) 0.0277(7) -0.0074(6) -0.0011(6) -0.0021(6)
C9 0.0215(6) 0.0193(6) 0.0226(6) -0.0058(5) 0.0011(5) -0.0106(5)
C10 0.0281(7) 0.0193(6) 0.0222(7) -0.0031(5) -0.0036(5) -0.0051(5)
C11 0.0238(7) 0.0189(6) 0.0261(7) -0.0061(5) -0.0004(5) -0.0033(5)
C12 0.0234(7) 0.0239(7) 0.0245(7) -0.0069(5) 0.0029(5) -0.0103(5)
S1 0.0253(2) 0.02448(19) 0.0339(2) -0.00660(15) -0.00797(14) -0.00332(14)
O3 0.0356(6) 0.0326(6) 0.0295(6) -0.0114(5) 0.0015(4) -0.0054(5)
C13 0.0661(14) 0.0433(11) 0.0408(10) -0.0043(8) 0.0249(10) -0.0039(10)
C14 0.0750(15) 0.0348(10) 0.0608(13) -0.0225(9) 0.0171(11) -0.0258(10)
loop_
_atom_type_symbol
_atom_type_description
_atom_type_scat_dispersion_real
_atom_type_scat_dispersion_imag
_atom_type_scat_source
C C 0.0181 0.0091 'International Tables Vol C Tables 4.2.6.8 and 6.1.1.4'
H H 0.0000 0.0000 'International Tables Vol C Tables 4.2.6.8 and 6.1.1.4'
N N 0.0311 0.0180 'International Tables Vol C Tables 4.2.6.8 and 6.1.1.4'
O O 0.0492 0.0322 'International Tables Vol C Tables 4.2.6.8 and 6.1.1.4'
S S 0.3331 0.5567 'International Tables Vol C Tables 4.2.6.8 and 6.1.1.4'
loop_
_geom_angle_atom_site_label_1
_geom_angle_atom_site_label_2
_geom_angle_atom_site_label_3
_geom_angle
_geom_angle_site_symmetry_1
_geom_angle_site_symmetry_3
C1 N1 C12 121.26(12) . 2_655
C1 N1 H1N 118.0(13) . .
C12 N1 H1N 115.5(13) 2_655 .
C4 N2 C5 121.70(13) . .
C4 N2 H2N 121.6(13) . .
C5 N2 H2N 115.8(13) . .
N1 C1 C4 135.22(13) . .
N1 C1 C2 132.48(13) . .
C4 C1 C2 92.28(11) . .
O1 C2 C1 134.31(13) . .
O1 C2 C3 136.73(14) . .
C1 C2 C3 88.93(11) . .
O2 C3 C4 135.52(13) . .
O2 C3 C2 136.84(14) . .
C4 C3 C2 87.58(11) . .
N2 C4 C1 135.39(14) . .
N2 C4 C3 133.44(13) . .
C1 C4 C3 91.17(11) . .
N2 C5 C6 111.00(11) . .
N2 C5 H5A 109.4 . .
C6 C5 H5A 109.4 . .
N2 C5 H5B 109.4 . .
C6 C5 H5B 109.4 . .
H5A C5 H5B 108.0 . .
C11 C6 C7 118.60(13) . .
C11 C6 C5 120.60(12) . .
C7 C6 C5 120.75(12) . .
C8 C7 C6 120.76(13) . .
C8 C7 H7 119.6 . .
C6 C7 H7 119.6 . .
C7 C8 C9 120.74(13) . .
C7 C8 H8 119.6 . .
C9 C8 H8 119.6 . .
C10 C9 C8 118.44(13) . .
C10 C9 C12 122.54(12) . .
C8 C9 C12 119.01(12) . .
C11 C10 C9 120.74(13) . .
C11 C10 H10 119.6 . .
C9 C10 H10 119.6 . .
C6 C11 C10 120.64(13) . .
C6 C11 H11 119.7 . .
C10 C11 H11 119.7 . .
N1 C12 C9 113.26(11) 2_655 .
N1 C12 H12A 108.9 2_655 .
C9 C12 H12A 108.9 . .
N1 C12 H12B 108.9 2_655 .
C9 C12 H12B 108.9 . .
H12A C12 H12B 107.7 . .
O3 S1 C13 106.41(8) . .
O3 S1 C14 106.49(9) . .
C13 S1 C14 98.61(12) . .
S1 C13 H13A 109.5 . .
S1 C13 H13B 109.5 . .
H13A C13 H13B 109.5 . .
S1 C13 H13C 109.5 . .
H13A C13 H13C 109.5 . .
H13B C13 H13C 109.5 . .
S1 C14 H14A 109.5 . .
S1 C14 H14B 109.5 . .
H14A C14 H14B 109.5 . .
S1 C14 H14C 109.5 . .
H14A C14 H14C 109.5 . .
H14B C14 H14C 109.5 . .
loop_
_geom_bond_atom_site_label_1
_geom_bond_atom_site_label_2
_geom_bond_distance
_geom_bond_site_symmetry_2
O1 C2 1.2335(17) .
O2 C3 1.2183(18) .
N1 C1 1.3293(19) .
N1 C12 1.4566(18) 2_655
N1 H1N 0.86(2) .
N2 C4 1.3196(18) .
N2 C5 1.4663(17) .
N2 H2N 0.82(2) .
C1 C4 1.4200(18) .
C1 C2 1.451(2) .
C2 C3 1.5088(19) .
C3 C4 1.483(2) .
C5 C6 1.5118(18) .
C5 H5A 0.9900 .
C5 H5B 0.9900 .
C6 C11 1.3877(19) .
C6 C7 1.389(2) .
C7 C8 1.386(2) .
C7 H7 0.9500 .
C8 C9 1.390(2) .
C8 H8 0.9500 .
C9 C10 1.390(2) .
C9 C12 1.5192(19) .
C10 C11 1.390(2) .
C10 H10 0.9500 .
C11 H11 0.9500 .
C12 N1 1.4565(18) 2_655
C12 H12A 0.9900 .
C12 H12B 0.9900 .
S1 O3 1.4961(11) .
S1 C13 1.761(2) .
S1 C14 1.7762(19) .
C13 H13A 0.9800 .
C13 H13B 0.9800 .
C13 H13C 0.9800 .
C14 H14A 0.9800 .
C14 H14B 0.9800 .
C14 H14C 0.9800 .
loop_
_geom_hbond_atom_site_label_D
_geom_hbond_atom_site_label_H
_geom_hbond_atom_site_label_A
_geom_hbond_distance_DH
_geom_hbond_distance_HA
_geom_hbond_distance_DA
_geom_hbond_angle_DHA
_geom_hbond_site_symmetry_A
N1 H1N O1 0.86(2) 2.05(2) 2.8530(16) 156.4(18) 2_646
N2 H2N O3 0.82(2) 2.08(2) 2.8608(17) 159.6(18) .
C5 H5A O2 0.99 2.58 3.2749(18) 126.9 .
C12 H12B O3 0.99 2.60 3.4734(18) 147.0 2_655
C13 H13A O1 0.98 2.65 3.512(2) 146.6 1_465
C13 H13C O2 0.98 2.62 3.364(3) 133.0 2_656
loop_
_geom_torsion_atom_site_label_1
_geom_torsion_atom_site_label_2
_geom_torsion_atom_site_label_3
_geom_torsion_atom_site_label_4
_geom_torsion
_geom_torsion_site_symmetry_1
_geom_torsion_site_symmetry_4
C12 N1 C1 C4 17.0(2) 2_655 .
C12 N1 C1 C2 -160.48(13) 2_655 .
N1 C1 C2 O1 -1.4(3) . .
C4 C1 C2 O1 -179.66(16) . .
N1 C1 C2 C3 176.75(15) . .
C4 C1 C2 C3 -1.47(10) . .
O1 C2 C3 O2 2.2(3) . .
C1 C2 C3 O2 -175.96(18) . .
O1 C2 C3 C4 179.52(17) . .
C1 C2 C3 C4 1.41(10) . .
C5 N2 C4 C1 -169.60(14) . .
C5 N2 C4 C3 11.7(2) . .
N1 C1 C4 N2 4.3(3) . .
C2 C1 C4 N2 -177.60(16) . .
N1 C1 C4 C3 -176.64(15) . .
C2 C1 C4 C3 1.49(10) . .
O2 C3 C4 N2 -4.9(3) . .
C2 C3 C4 N2 177.69(15) . .
O2 C3 C4 C1 175.99(17) . .
C2 C3 C4 C1 -1.44(10) . .
C4 N2 C5 C6 92.38(15) . .
N2 C5 C6 C11 95.55(15) . .
N2 C5 C6 C7 -81.76(17) . .
C11 C6 C7 C8 0.7(2) . .
C5 C6 C7 C8 178.09(14) . .
C6 C7 C8 C9 1.9(2) . .
C7 C8 C9 C10 -2.8(2) . .
C7 C8 C9 C12 176.28(13) . .
C8 C9 C10 C11 1.2(2) . .
C12 C9 C10 C11 -177.86(13) . .
C7 C6 C11 C10 -2.3(2) . .
C5 C6 C11 C10 -179.71(13) . .
C9 C10 C11 C6 1.4(2) . .
C10 C9 C12 N1 -16.49(19) . 2_655
C8 C9 C12 N1 164.49(13) . 2_655
