#------------------------------------------------------------------------------
#$Date: 2017-11-07 03:23:43 +0200 (Tue, 07 Nov 2017) $
#$Revision: 202831 $
#$URL: file:///home/coder/svn-repositories/cod/cif/1/54/75/1547513.cif $
#------------------------------------------------------------------------------
#
# This file is available in the Crystallography Open Database (COD),
# http://www.crystallography.net/
#
# All data on this site have been placed in the public domain by the
# contributors.
#
data_1547513
loop_
_publ_author_name
'Mandal, Debdeep'
'Dolai, Ramapada'
'Chrysochos, Nicolas'
'Kalita, Pankaj'
'Kumar, Ravi'
'Dhara, Debabrata'
'Maiti, Avijit'
'Narayanan, Ramakirushnan Suriya'
'Rajaraman, Gopalan'
'Schulzke, Carola'
'Chandrasekhar, Vadapalli'
'Jana, Anukul'
_publ_section_title
;
 Stepwise Reversible Oxidation of N-Peralkyl-Substituted NHC-CAAC Derived
 Triazaalkenes: Isolation of Radical Cations and Dications.
;
_journal_issue                   20
_journal_name_full               'Organic letters'
_journal_page_first              5605
_journal_page_last               5608
_journal_paper_doi               10.1021/acs.orglett.7b02721
_journal_volume                  19
_journal_year                    2017
_chemical_formula_moiety         '2(C F3 O3 S), C22 H41 N3, C2 H3 N'
_chemical_formula_sum            'C26 H44 F6 N4 O6 S2'
_chemical_formula_weight         686.77
_space_group_crystal_system      orthorhombic
_space_group_IT_number           33
_space_group_name_Hall           'P 2c -2n'
_space_group_name_H-M_alt        'P n a 21'
_symmetry_space_group_name_Hall  'P 2c -2n'
_symmetry_space_group_name_H-M   'P n a 21'
_atom_sites_solution_hydrogens   geom
_atom_sites_solution_primary     direct
_audit_creation_date             2017-01-13
_audit_creation_method
;
Olex2 1.2-alpha
(compiled 2016.02.24 svn.r3266 for OlexSys, GUI svn.r5155)
;
_cell_angle_alpha                90
_cell_angle_beta                 90
_cell_angle_gamma                90
_cell_formula_units_Z            4
_cell_length_a                   23.095(2)
_cell_length_b                   13.2861(12)
_cell_length_c                   10.6916(10)
_cell_measurement_reflns_used    4390
_cell_measurement_temperature    100(2)
_cell_measurement_theta_max      20.76
_cell_measurement_theta_min      2.44
_cell_volume                     3280.6(5)
_computing_molecular_graphics    'Olex2 (Dolomanov et al., 2009)'
_computing_publication_material  'Olex2 (Dolomanov et al., 2009)'
_computing_structure_refinement  'ShelXL (Sheldrick, 2015)'
_computing_structure_solution    'ShelXT (Sheldrick, 2015)'
_diffrn_ambient_temperature      100(2)
_diffrn_detector                 'Bruker APEX2 area detector'
_diffrn_detector_type            'CCD area detector'
_diffrn_measured_fraction_theta_full 0.996
_diffrn_measured_fraction_theta_max 0.996
_diffrn_measurement_device       'three-circle diffractometer'
_diffrn_radiation_monochromator  'mirror optics'
_diffrn_radiation_probe          x-ray
_diffrn_radiation_type           MoK\a
_diffrn_radiation_wavelength     0.71073
_diffrn_reflns_av_R_equivalents  0.0990
_diffrn_reflns_av_unetI/netI     0.0729
_diffrn_reflns_Laue_measured_fraction_full 0.996
_diffrn_reflns_Laue_measured_fraction_max 0.996
_diffrn_reflns_limit_h_max       27
_diffrn_reflns_limit_h_min       -27
_diffrn_reflns_limit_k_max       16
_diffrn_reflns_limit_k_min       -15
_diffrn_reflns_limit_l_max       12
_diffrn_reflns_limit_l_min       -10
_diffrn_reflns_number            34135
_diffrn_reflns_point_group_measured_fraction_full 0.920
_diffrn_reflns_point_group_measured_fraction_max 0.920
_diffrn_reflns_theta_full        25.377
_diffrn_reflns_theta_max         25.377
_diffrn_reflns_theta_min         1.764
_diffrn_source_type              'Incoatec I\ms'
_diffrn_standards_number         0
_exptl_absorpt_coefficient_mu    0.241
_exptl_absorpt_correction_T_max  0.7452
_exptl_absorpt_correction_T_min  0.6171
_exptl_absorpt_correction_type   multi-scan
_exptl_absorpt_process_details
;
SADABS-2014/5 (Bruker,2014/5) was used for absorption correction.
wR2(int) was 0.0965 before and 0.0760 after correction.
The Ratio of minimum to maximum transmission is 0.8281.
The \l/2 correction factor is 0.00150.
;
_exptl_crystal_colour            colourless
_exptl_crystal_colour_primary    colourless
_exptl_crystal_density_diffrn    1.390
_exptl_crystal_description       needle
_exptl_crystal_F_000             1448
_exptl_crystal_size_max          0.2
_exptl_crystal_size_mid          0.1
_exptl_crystal_size_min          0.08
_refine_diff_density_max         0.398
_refine_diff_density_min         -0.286
_refine_diff_density_rms         0.057
_refine_ls_abs_structure_details
;
 Flack x determined using 1490 quotients [(I+)-(I-)]/[(I+)+(I-)]
 (Parsons, Flack and Wagner, Acta Cryst. B69 (2013) 249-259).
;
_refine_ls_abs_structure_Flack   0.00(6)
_refine_ls_extinction_method     none
_refine_ls_goodness_of_fit_ref   1.019
_refine_ls_hydrogen_treatment    constr
_refine_ls_matrix_type           full
_refine_ls_number_parameters     410
_refine_ls_number_reflns         5540
_refine_ls_number_restraints     1
_refine_ls_restrained_S_all      1.019
_refine_ls_R_factor_all          0.0675
_refine_ls_R_factor_gt           0.0471
_refine_ls_shift/su_max          0.000
_refine_ls_shift/su_mean         0.000
_refine_ls_structure_factor_coef Fsqd
_refine_ls_weighting_details
'w=1/[\s^2^(Fo^2^)+(0.0491P)^2^+0.1928P] where P=(Fo^2^+2Fc^2^)/3'
_refine_ls_weighting_scheme      calc
_refine_ls_wR_factor_gt          0.0986
_refine_ls_wR_factor_ref         0.1073
_reflns_Friedel_coverage         0.745
_reflns_Friedel_fraction_full    0.834
_reflns_Friedel_fraction_max     0.834
_reflns_number_gt                4340
_reflns_number_total             5540
_reflns_threshold_expression     'I > 2\s(I)'
_iucr_refine_instructions_details
;
TITL vc_aj_dm_485_a.res in Pna2(1)
 vc_aj_dm_485.res created by SHELXL-2016/4 at 21:32:07 on 13-Jan-2017
REM Old TITL VC_AJ_DM_485 in Pna21 #33
REM SHELXT solution in Pna2(1)
REM R1 0.120, Rweak 0.020, Alpha 0.003, Orientation as input
REM Flack x = -0.021 ( 0.061 ) from Parsons' quotients
REM Formula found by SHELXT: C26 N4 O6 F6 S2
CELL 0.71073 23.0948 13.2861 10.6916 90 90 90
ZERR 4 0.002 0.0012 0.001 0 0 0
LATT -1
SYMM -X,-Y,0.5+Z
SYMM 0.5+X,0.5-Y,+Z
SYMM 0.5-X,0.5+Y,0.5+Z
SFAC C H F N O S
UNIT 104 176 24 16 24 8

L.S. 10
PLAN  20
TEMP -173(2)
BOND $H
LIST 6
MORE -1
CONF
fmap 2
acta 52
REM <olex2.extras>
REM <HklSrc "%.\\VC_AJ_DM_485.hkl">
REM </olex2.extras>

WGHT    0.049100    0.192800
FVAR       0.30319
S1    6    0.499289    0.303892    0.453474    11.00000    0.02136    0.02325 =
         0.02071   -0.00134    0.00187   -0.00111
S2    6    0.785874    0.385851    0.970146    11.00000    0.02421    0.04626 =
         0.02589   -0.00286   -0.00077   -0.01008
F2    3    0.509100    0.107459    0.470172    11.00000    0.06101    0.02646 =
         0.04559   -0.00492   -0.00239    0.00445
F3    3    0.484875    0.178799    0.641524    11.00000    0.05516    0.04268 =
         0.02588    0.01198    0.00414   -0.00249
N1    4    0.633830    0.532854    0.353451    11.00000    0.01509    0.02096 =
         0.01120    0.00062   -0.00116    0.00041
F1    3    0.572470    0.188773    0.575186    11.00000    0.02683    0.05587 =
         0.07939    0.02056   -0.01938   -0.00248
F6    3    0.888693    0.450108    1.031100    11.00000    0.04086    0.11693 =
         0.02884   -0.00250   -0.00744   -0.03267
O2    5    0.438723    0.289997    0.425980    11.00000    0.02167    0.04352 =
         0.04082    0.01514   -0.00221   -0.00169
N2    4    0.640515    0.521683    0.557653    11.00000    0.01660    0.02006 =
         0.01218   -0.00069    0.00002    0.00110
O4    5    0.758430    0.376592    0.850195    11.00000    0.02969    0.05699 =
         0.03337   -0.00300   -0.01169   -0.00655
N3    4    0.771049    0.485099    0.436001    11.00000    0.01690    0.01686 =
         0.00826   -0.00109   -0.00128    0.00420
F5    3    0.885203    0.372123    0.856751    11.00000    0.02969    0.13328 =
         0.04458   -0.01908    0.00344    0.02327
O1    5    0.536671    0.299846    0.347163    11.00000    0.03630    0.04384 =
         0.02750    0.00420    0.01768    0.00402
O3    5    0.511556    0.382584    0.541351    11.00000    0.05827    0.02853 =
         0.02729   -0.00671    0.00071   -0.00956
F4    3    0.852746    0.520134    0.868212    11.00000    0.08359    0.06333 =
         0.06730    0.02830   -0.00412   -0.03590
O6    5    0.763080    0.461369    1.050438    11.00000    0.04458    0.11143 =
         0.05732   -0.04049    0.01520    0.00670
C1    1    0.666327    0.497772    0.449234    11.00000    0.01662    0.01386 =
         0.01368    0.00174   -0.00327   -0.00224
C00I  1    0.778286    0.597318    0.440192    11.00000    0.02018    0.01683 =
         0.01411    0.00314   -0.00322    0.00443
AFIX  13
H00I  2    0.738751    0.626299    0.452761    11.00000   -1.20000
AFIX   0
C12   1    0.651681    0.526647    0.219766    11.00000    0.01715    0.02770 =
         0.01078    0.00433   -0.00248    0.00315
AFIX  13
H12   2    0.689948    0.491487    0.217234    11.00000   -1.20000
AFIX   0

O5    5    0.798336    0.292151    1.031245    11.00000    0.08971    0.05681 =
         0.05806    0.03230   -0.02624   -0.03761
C5    1    0.724701    0.327352    0.424079    11.00000    0.02033    0.01506 =
         0.01782   -0.00017    0.00006    0.00197
C17   1    0.664245    0.496299    0.681941    11.00000    0.02153    0.02582 =
         0.00836   -0.00530   -0.00286    0.00064
AFIX  13
H17   2    0.700310    0.456205    0.667904    11.00000   -1.20000
AFIX   0
C2    1    0.585822    0.581366    0.404934    11.00000    0.01582    0.01775 =
         0.02356   -0.00216    0.00107    0.00354
C9    1    0.845486    0.397655    0.564866    11.00000    0.02221    0.02390 =
         0.02323    0.00438   -0.00500    0.00301
AFIX 137
H9A   2    0.866615    0.458862    0.587963    11.00000   -1.50000
H9B   2    0.871834    0.339876    0.567595    11.00000   -1.50000
H9C   2    0.813587    0.386893    0.623814    11.00000   -1.50000
AFIX   0
C3    1    0.589801    0.573381    0.530131    11.00000    0.01405    0.02088 =
         0.01814   -0.00095    0.00176    0.00182
C4    1    0.721519    0.441146    0.436007    11.00000    0.01865    0.02072 =
         0.00465    0.00076    0.00046    0.00296
C6    1    0.789164    0.315318    0.388241    11.00000    0.02753    0.02124 =
         0.01722   -0.00096   -0.00137    0.00507
AFIX  23
H6A   2    0.805484    0.254365    0.428168    11.00000   -1.20000
H6B   2    0.793128    0.308422    0.296440    11.00000   -1.20000
AFIX   0
C13   1    0.609894    0.465341    0.141142    11.00000    0.02722    0.03404 =
         0.01538   -0.00075   -0.00087   -0.00028
AFIX 137
H13A  2    0.596185    0.407479    0.189668    11.00000   -1.50000
H13B  2    0.629670    0.441522    0.065639    11.00000   -1.50000
H13C  2    0.576831    0.507419    0.117328    11.00000   -1.50000
AFIX   0
C16   1    0.548963    0.613616    0.625362    11.00000    0.02773    0.03309 =
         0.02598   -0.00554    0.00181    0.00305
AFIX 137
H16A  2    0.530300    0.557558    0.669223    11.00000   -1.50000
H16B  2    0.519400    0.654751    0.584001    11.00000   -1.50000
H16C  2    0.570281    0.655051    0.685612    11.00000   -1.50000
AFIX   0
C11   1    0.708143    0.276155    0.546577    11.00000    0.02893    0.01696 =
         0.01948    0.00178   -0.00240   -0.00208
AFIX 137
H11A  2    0.733405    0.300448    0.613754    11.00000   -1.50000
H11B  2    0.712604    0.203140    0.537834    11.00000   -1.50000
H11C  2    0.667776    0.291966    0.566887    11.00000   -1.50000
AFIX   0
C8    1    0.868695    0.437799    0.342980    11.00000    0.02160    0.02609 =
         0.02854    0.00026    0.00462    0.00248
AFIX 137
H8A   2    0.851767    0.451108    0.260572    11.00000   -1.50000
H8B   2    0.896643    0.382550    0.336397    11.00000   -1.50000
H8C   2    0.888409    0.498425    0.373188    11.00000   -1.50000
AFIX   0
C00W  1    0.800420    0.638835    0.317513    11.00000    0.03125    0.02307 =
         0.02612    0.00669   -0.00187    0.00022
AFIX 137
H00A  2    0.842550    0.630642    0.313478    11.00000   -1.50000
H00B  2    0.790660    0.710456    0.311505    11.00000   -1.50000
H00C  2    0.782397    0.602318    0.248037    11.00000   -1.50000
AFIX   0
C14   1    0.660834    0.632046    0.166829    11.00000    0.02727    0.03183 =
         0.02965    0.01379   -0.00276   -0.00149
AFIX 137
H14A  2    0.623174    0.663623    0.151200    11.00000   -1.50000
H14B  2    0.682520    0.627572    0.088238    11.00000   -1.50000
H14C  2    0.682690    0.672670    0.227032    11.00000   -1.50000
AFIX   0
C7    1    0.821353    0.409016    0.433529    11.00000    0.01657    0.02091 =
         0.01873   -0.00037   -0.00187    0.00828
C10   1    0.684311    0.288809    0.320859    11.00000    0.03003    0.02276 =
         0.02399   -0.00414   -0.00472    0.00082
AFIX 137
H10A  2    0.644177    0.305721    0.341941    11.00000   -1.50000
H10B  2    0.688226    0.215603    0.313479    11.00000   -1.50000
H10C  2    0.694710    0.320466    0.241175    11.00000   -1.50000
AFIX   0
C19   1    0.681522    0.590617    0.753312    11.00000    0.02513    0.03174 =
         0.01906   -0.00771    0.00073   -0.00104
AFIX 137
H19A  2    0.703391    0.635469    0.697961    11.00000   -1.50000
H19B  2    0.705661    0.571943    0.825037    11.00000   -1.50000
H19C  2    0.646652    0.625232    0.782940    11.00000   -1.50000
AFIX   0
C18   1    0.622556    0.429999    0.757329    11.00000    0.02537    0.03485 =
         0.02101    0.00263    0.00035   -0.00067
AFIX 137
H18A  2    0.591092    0.471558    0.790723    11.00000   -1.50000
H18B  2    0.643540    0.398321    0.826593    11.00000   -1.50000
H18C  2    0.606401    0.377757    0.702837    11.00000   -1.50000
AFIX   0

C21   1    0.856917    0.433218    0.930314    11.00000    0.03437    0.05013 =
         0.02319   -0.00029   -0.00484   -0.00551
C20   1    0.517281    0.190017    0.538995    11.00000    0.02628    0.03320 =
         0.02653   -0.00110   -0.00035   -0.00480
C15   1    0.539190    0.629162    0.328634    11.00000    0.02490    0.04673 =
         0.02766   -0.00323   -0.00653    0.01315
AFIX 137
H15A  2    0.550134    0.698595    0.308680    11.00000   -1.50000
H15B  2    0.502912    0.629169    0.376182    11.00000   -1.50000
H15C  2    0.533912    0.591099    0.250953    11.00000   -1.50000
AFIX   0

N4    4    0.535586    0.149890   -0.054333    11.00000    0.04866    0.09005 =
         0.06941    0.01849    0.00417    0.02483
C016  1    0.814568    0.631610    0.550278    11.00000    0.02903    0.02189 =
         0.03258   -0.00726   -0.00656   -0.00078
AFIX 137
H01A  2    0.800751    0.598694    0.626683    11.00000   -1.50000
H01B  2    0.811258    0.704771    0.559501    11.00000   -1.50000
H01C  2    0.855165    0.613547    0.535863    11.00000   -1.50000
AFIX   0

C23   1    0.524867    0.126905    0.044099    11.00000    0.02856    0.05794 =
         0.04819   -0.01054   -0.00053    0.01192
C22   1    0.512285    0.095656    0.171770    11.00000    0.04678    0.06863 =
         0.04781   -0.02098   -0.00129    0.00226
AFIX 137
H22A  2    0.480272    0.047242    0.171341    11.00000   -1.50000
H22B  2    0.501397    0.154586    0.221628    11.00000   -1.50000
H22C  2    0.546719    0.064107    0.208270    11.00000   -1.50000
AFIX   0
HKLF 4




REM  vc_aj_dm_485_a.res in Pna2(1)
REM R1 =  0.0471 for    4340 Fo > 4sig(Fo)  and  0.0675 for all    5540 data
REM    410 parameters refined using      1 restraints

END  
     
WGHT      0.0491      0.1928 

REM Highest difference peak  0.398,  deepest hole -0.286,  1-sigma level  0.057
Q1    1   0.7808  0.4636  0.9692  11.00000  0.05    0.40
Q2    1   0.5001  0.2189  0.4506  11.00000  0.05    0.34
Q3    1   0.5003  0.3837  0.4525  11.00000  0.05    0.26
Q4    1   0.5113  0.2829  0.5529  11.00000  0.05    0.25
Q5    1   0.7714  0.3728  1.0686  11.00000  0.05    0.24
Q6    1   0.7821  0.3566  0.8628  11.00000  0.05    0.24
Q7    1   0.7231  0.3819  0.4306  11.00000  0.05    0.23
Q8    1   0.8757  0.4567  0.8441  11.00000  0.05    0.23
Q9    1   0.6291  0.4831  0.9228  11.00000  0.05    0.22
Q10   1   0.7687  0.4269  0.7874  11.00000  0.05    0.21
Q11   1   0.8616  0.4873  1.0476  11.00000  0.05    0.21
Q12   1   0.4789  0.2881  0.6694  11.00000  0.05    0.21
Q13   1   0.6458  0.4788  0.1704  11.00000  0.05    0.21
Q14   1   0.8908  0.3624  1.0319  11.00000  0.05    0.21
Q15   1   0.5372  0.1846  0.0437  11.00000  0.05    0.21
Q16   1   0.5213  0.6075  0.4979  11.00000  0.05    0.20
Q17   1   0.6509  0.5302  0.4073  11.00000  0.05    0.20
Q18   1   0.5301  0.3544  0.2625  11.00000  0.05    0.20
Q19   1   0.4918  0.3433  0.3296  11.00000  0.05    0.20
Q20   1   0.5166  0.2424  0.6384  11.00000  0.05    0.20

  REM The information below was added by Olex2.
  REM
  REM R1 = 0.0471 for 4340 Fo > 4sig(Fo) and 0.0675 for all 34135 data
  REM n/a parameters refined using n/a restraints
  REM Highest difference peak 0.40, deepest hole -0.29
  REM Mean Shift 0, Max Shift 0.000.
  
  REM +++ Tabular Listing of Refinement Information +++
  REM R1_all = 0.0675
  REM R1_gt = 0.0471
  REM wR_ref = 0.1073
  REM GOOF = 1.019
  REM Shift_max = 0.000
  REM Shift_mean = 0
  REM Reflections_all = 34135
  REM Reflections_gt = 4340
  REM Parameters = n/a
  REM Hole = -0.29
  REM Peak = 0.40
  REM Flack = -0.00(6)
  
  
;
_cod_data_source_file            ol7b02721_si_002.cif
_cod_data_source_block           vc_aj_dm_485
_cod_depositor_comments
'Adding full bibliography for 1547507--1547513.cif.'
_cod_database_code               1547513
_shelx_space_group_comment
;
The symmetry employed for this shelxl refinement is uniquely defined
by the following loop, which should always be used as a source of
symmetry information in preference to the above space-group names.
They are only intended as comments.
;
_olex2_refinement_description
;
1. Fixed Uiso
 At 1.2 times of:
  All C(H) groups, All C(H,H) groups
 At 1.5 times of:
  All C(H,H,H) groups
2.a Ternary CH refined with riding coordinates:
 C00I(H00I), C12(H12), C17(H17)
2.b Secondary CH2 refined with riding coordinates:
 C6(H6A,H6B)
2.c Idealised Me refined as rotating group:
 C9(H9A,H9B,H9C), C13(H13A,H13B,H13C), C16(H16A,H16B,H16C), C11(H11A,H11B,
 H11C), C8(H8A,H8B,H8C), C00W(H00A,H00B,H00C), C14(H14A,H14B,H14C), C10(H10A,
 H10B,H10C), C19(H19A,H19B,H19C), C18(H18A,H18B,H18C), C15(H15A,H15B,H15C),
 C016(H01A,H01B,H01C), C22(H22A,H22B,H22C)
;
_shelx_shelxl_version_number     2016/4
_olex2_submission_special_instructions 'No special instructions were received'
loop_
_space_group_symop_operation_xyz
'x, y, z'
'-x, -y, z+1/2'
'x+1/2, -y+1/2, z'
'-x+1/2, y+1/2, z+1/2'
loop_
_atom_site_label
_atom_site_type_symbol
_atom_site_fract_x
_atom_site_fract_y
_atom_site_fract_z
_atom_site_U_iso_or_equiv
_atom_site_adp_type
_atom_site_occupancy
_atom_site_site_symmetry_order
_atom_site_calc_flag
_atom_site_refinement_flags_posn
S1 S 0.49929(4) 0.30389(8) 0.45347(13) 0.0218(3) Uani 1 1 d .
S2 S 0.78587(5) 0.38585(10) 0.97015(13) 0.0321(3) Uani 1 1 d .
F2 F 0.50910(13) 0.1075(2) 0.4702(3) 0.0444(8) Uani 1 1 d .
F3 F 0.48487(13) 0.1788(2) 0.6415(3) 0.0412(8) Uani 1 1 d .
N1 N 0.63383(14) 0.5329(3) 0.3535(3) 0.0158(8) Uani 1 1 d .
F1 F 0.57247(13) 0.1888(2) 0.5752(3) 0.0540(10) Uani 1 1 d .
F6 F 0.88869(13) 0.4501(3) 1.0311(3) 0.0622(11) Uani 1 1 d .
O2 O 0.43872(13) 0.2900(2) 0.4260(3) 0.0353(9) Uani 1 1 d .
N2 N 0.64051(14) 0.5217(3) 0.5577(3) 0.0163(8) Uani 1 1 d .
O4 O 0.75843(14) 0.3766(3) 0.8502(3) 0.0400(9) Uani 1 1 d .
N3 N 0.77105(14) 0.4851(2) 0.4360(3) 0.0140(8) Uani 1 1 d .
F5 F 0.88520(14) 0.3721(3) 0.8568(3) 0.0692(12) Uani 1 1 d .
O1 O 0.53667(14) 0.2998(3) 0.3472(3) 0.0359(9) Uani 1 1 d .
O3 O 0.51156(16) 0.3826(2) 0.5414(3) 0.0380(9) Uani 1 1 d .
F4 F 0.85275(18) 0.5201(3) 0.8682(4) 0.0714(12) Uani 1 1 d .
O6 O 0.76308(17) 0.4614(4) 1.0504(5) 0.0711(14) Uani 1 1 d .
C1 C 0.66633(16) 0.4978(3) 0.4492(5) 0.0147(9) Uani 1 1 d .
C00I C 0.77829(17) 0.5973(3) 0.4402(4) 0.0170(10) Uani 1 1 d .
H00I H 0.738751 0.626299 0.452761 0.020 Uiso 1 1 calc R
C12 C 0.65168(18) 0.5266(3) 0.2198(4) 0.0185(11) Uani 1 1 d .
H12 H 0.689948 0.491487 0.217234 0.022 Uiso 1 1 calc R
O5 O 0.7983(2) 0.2922(3) 1.0312(4) 0.0682(14) Uani 1 1 d .
C5 C 0.72470(18) 0.3274(3) 0.4241(4) 0.0177(10) Uani 1 1 d .
C17 C 0.66425(18) 0.4963(3) 0.6819(4) 0.0186(10) Uani 1 1 d .
H17 H 0.700310 0.456205 0.667904 0.022 Uiso 1 1 calc R
C2 C 0.58582(19) 0.5814(3) 0.4049(5) 0.0190(11) Uani 1 1 d .
C9 C 0.84549(19) 0.3977(3) 0.5649(5) 0.0231(11) Uani 1 1 d .
H9A H 0.866615 0.458862 0.587963 0.035 Uiso 1 1 calc GR
H9B H 0.871834 0.339876 0.567595 0.035 Uiso 1 1 calc GR
H9C H 0.813587 0.386893 0.623814 0.035 Uiso 1 1 calc GR
C3 C 0.58980(17) 0.5734(3) 0.5301(4) 0.0177(10) Uani 1 1 d .
C4 C 0.72152(17) 0.4411(3) 0.4360(4) 0.0147(9) Uani 1 1 d .
C6 C 0.78916(19) 0.3153(3) 0.3882(5) 0.0220(11) Uani 1 1 d .
H6A H 0.805484 0.254365 0.428168 0.026 Uiso 1 1 calc R
H6B H 0.793128 0.308422 0.296440 0.026 Uiso 1 1 calc R
C13 C 0.6099(2) 0.4653(4) 0.1411(4) 0.0255(11) Uani 1 1 d .
H13A H 0.596185 0.407479 0.189668 0.038 Uiso 1 1 calc GR
H13B H 0.629670 0.441522 0.065639 0.038 Uiso 1 1 calc GR
H13C H 0.576831 0.507419 0.117328 0.038 Uiso 1 1 calc GR
C16 C 0.5490(2) 0.6136(4) 0.6254(5) 0.0289(12) Uani 1 1 d .
H16A H 0.530300 0.557558 0.669223 0.043 Uiso 1 1 calc GR
H16B H 0.519400 0.654751 0.584001 0.043 Uiso 1 1 calc GR
H16C H 0.570281 0.655051 0.685612 0.043 Uiso 1 1 calc GR
C11 C 0.7081(2) 0.2762(3) 0.5466(5) 0.0218(10) Uani 1 1 d .
H11A H 0.733405 0.300448 0.613754 0.033 Uiso 1 1 calc GR
H11B H 0.712604 0.203140 0.537834 0.033 Uiso 1 1 calc GR
H11C H 0.667776 0.291966 0.566887 0.033 Uiso 1 1 calc GR
C8 C 0.86870(19) 0.4378(4) 0.3430(5) 0.0254(11) Uani 1 1 d .
H8A H 0.851767 0.451108 0.260572 0.038 Uiso 1 1 calc GR
H8B H 0.896643 0.382550 0.336397 0.038 Uiso 1 1 calc GR
H8C H 0.888409 0.498425 0.373188 0.038 Uiso 1 1 calc GR
C00W C 0.8004(2) 0.6388(4) 0.3175(5) 0.0268(12) Uani 1 1 d .
H00A H 0.842550 0.630642 0.313478 0.040 Uiso 1 1 calc GR
H00B H 0.790660 0.710456 0.311505 0.040 Uiso 1 1 calc GR
H00C H 0.782397 0.602318 0.248037 0.040 Uiso 1 1 calc GR
C14 C 0.6608(2) 0.6320(4) 0.1668(5) 0.0296(12) Uani 1 1 d .
H14A H 0.623174 0.663623 0.151200 0.044 Uiso 1 1 calc GR
H14B H 0.682520 0.627572 0.088238 0.044 Uiso 1 1 calc GR
H14C H 0.682690 0.672670 0.227032 0.044 Uiso 1 1 calc GR
C7 C 0.82135(17) 0.4090(3) 0.4335(4) 0.0187(10) Uani 1 1 d .
C10 C 0.6843(2) 0.2888(4) 0.3209(5) 0.0256(12) Uani 1 1 d .
H10A H 0.644177 0.305721 0.341941 0.038 Uiso 1 1 calc GR
H10B H 0.688226 0.215603 0.313479 0.038 Uiso 1 1 calc GR
H10C H 0.694710 0.320466 0.241175 0.038 Uiso 1 1 calc GR
C19 C 0.6815(2) 0.5906(3) 0.7533(5) 0.0253(12) Uani 1 1 d .
H19A H 0.703391 0.635469 0.697961 0.038 Uiso 1 1 calc GR
H19B H 0.705661 0.571943 0.825037 0.038 Uiso 1 1 calc GR
H19C H 0.646652 0.625232 0.782940 0.038 Uiso 1 1 calc GR
C18 C 0.62256(19) 0.4300(4) 0.7573(5) 0.0271(12) Uani 1 1 d .
H18A H 0.591092 0.471558 0.790723 0.041 Uiso 1 1 calc GR
H18B H 0.643540 0.398321 0.826593 0.041 Uiso 1 1 calc GR
H18C H 0.606401 0.377757 0.702837 0.041 Uiso 1 1 calc GR
C21 C 0.8569(2) 0.4332(4) 0.9303(5) 0.0359(13) Uani 1 1 d .
C20 C 0.5173(2) 0.1900(4) 0.5390(5) 0.0287(12) Uani 1 1 d .
C15 C 0.5392(2) 0.6292(4) 0.3286(5) 0.0331(13) Uani 1 1 d .
H15A H 0.550134 0.698595 0.308680 0.050 Uiso 1 1 calc GR
H15B H 0.502912 0.629169 0.376182 0.050 Uiso 1 1 calc GR
H15C H 0.533912 0.591099 0.250953 0.050 Uiso 1 1 calc GR
N4 N 0.5356(2) 0.1499(5) -0.0543(7) 0.0694(17) Uani 1 1 d .
C016 C 0.8146(2) 0.6316(4) 0.5503(5) 0.0278(12) Uani 1 1 d .
H01A H 0.800751 0.598694 0.626683 0.042 Uiso 1 1 calc GR
H01B H 0.811258 0.704771 0.559501 0.042 Uiso 1 1 calc GR
H01C H 0.855165 0.613547 0.535863 0.042 Uiso 1 1 calc GR
C23 C 0.5249(2) 0.1269(5) 0.0441(7) 0.0449(15) Uani 1 1 d .
C22 C 0.5123(3) 0.0957(5) 0.1718(6) 0.0544(17) Uani 1 1 d .
H22A H 0.480272 0.047242 0.171341 0.082 Uiso 1 1 calc GR
H22B H 0.501397 0.154586 0.221628 0.082 Uiso 1 1 calc GR
H22C H 0.546719 0.064107 0.208270 0.082 Uiso 1 1 calc GR
loop_
_atom_site_aniso_label
_atom_site_aniso_U_11
_atom_site_aniso_U_22
_atom_site_aniso_U_33
_atom_site_aniso_U_23
_atom_site_aniso_U_13
_atom_site_aniso_U_12
S1 0.0214(5) 0.0233(5) 0.0207(7) -0.0013(6) 0.0019(5) -0.0011(4)
S2 0.0242(6) 0.0463(8) 0.0259(8) -0.0029(7) -0.0008(6) -0.0101(5)
F2 0.0610(19) 0.0265(15) 0.046(2) -0.0049(16) -0.0024(18) 0.0044(13)
F3 0.0552(19) 0.0427(19) 0.0259(19) 0.0120(14) 0.0041(15) -0.0025(14)
N1 0.0151(18) 0.021(2) 0.011(2) 0.0006(17) -0.0012(16) 0.0004(15)
F1 0.0268(16) 0.056(2) 0.079(3) 0.0206(19) -0.0194(16) -0.0025(14)
F6 0.0409(19) 0.117(3) 0.029(2) -0.003(2) -0.0074(16) -0.0327(19)
O2 0.0217(16) 0.044(2) 0.041(3) 0.0151(18) -0.0022(16) -0.0017(14)
N2 0.0166(18) 0.020(2) 0.012(2) -0.0007(17) 0.0000(17) 0.0011(15)
O4 0.0297(19) 0.057(3) 0.033(2) -0.0030(19) -0.0117(18) -0.0066(17)
N3 0.0169(17) 0.0169(18) 0.008(2) -0.0011(16) -0.0013(15) 0.0042(13)
F5 0.0297(18) 0.133(4) 0.045(2) -0.019(2) 0.0034(17) 0.023(2)
O1 0.036(2) 0.044(2) 0.028(2) 0.0042(18) 0.0177(17) 0.0040(16)
O3 0.058(2) 0.029(2) 0.027(2) -0.0067(18) 0.0007(19) -0.0096(16)
F4 0.084(3) 0.063(3) 0.067(3) 0.028(2) -0.004(2) -0.036(2)
O6 0.045(2) 0.111(4) 0.057(3) -0.040(3) 0.015(2) 0.007(2)
C1 0.017(2) 0.014(2) 0.014(3) 0.002(2) -0.003(2) -0.0022(15)
C00I 0.020(2) 0.017(2) 0.014(3) 0.003(2) -0.003(2) 0.0044(16)
C12 0.017(2) 0.028(3) 0.011(3) 0.004(2) -0.0025(19) 0.0031(19)
O5 0.090(3) 0.057(3) 0.058(3) 0.032(2) -0.026(3) -0.038(2)
C5 0.020(2) 0.015(2) 0.018(3) 0.000(2) 0.0001(19) 0.0020(17)
C17 0.022(2) 0.026(2) 0.008(3) -0.005(2) -0.0029(19) 0.001(2)
C2 0.016(2) 0.018(2) 0.024(3) -0.002(2) 0.0011(19) 0.0035(18)
C9 0.022(2) 0.024(3) 0.023(3) 0.004(2) -0.005(2) 0.0030(19)
C3 0.014(2) 0.021(2) 0.018(3) -0.001(2) 0.0018(19) 0.0018(18)
C4 0.019(2) 0.021(2) 0.005(2) 0.0008(19) 0.0005(18) 0.0030(16)
C6 0.028(3) 0.021(3) 0.017(3) -0.001(2) -0.001(2) 0.0051(19)
C13 0.027(3) 0.034(3) 0.015(3) -0.001(2) -0.001(2) 0.000(2)
C16 0.028(3) 0.033(3) 0.026(3) -0.006(2) 0.002(2) 0.003(2)
C11 0.029(2) 0.017(2) 0.019(3) 0.002(2) -0.002(2) -0.0021(19)
C8 0.022(2) 0.026(3) 0.029(3) 0.000(2) 0.005(2) 0.0025(19)
C00W 0.031(3) 0.023(3) 0.026(3) 0.007(2) -0.002(2) 0.000(2)
C14 0.027(3) 0.032(3) 0.030(3) 0.014(2) -0.003(2) -0.001(2)
C7 0.017(2) 0.021(2) 0.019(3) 0.000(2) -0.0019(19) 0.0083(16)
C10 0.030(3) 0.023(3) 0.024(3) -0.004(2) -0.005(2) 0.001(2)
C19 0.025(3) 0.032(3) 0.019(3) -0.008(2) 0.001(2) -0.001(2)
C18 0.025(3) 0.035(3) 0.021(3) 0.003(2) 0.000(2) -0.001(2)
C21 0.034(3) 0.050(3) 0.023(3) 0.000(3) -0.005(3) -0.006(2)
C20 0.026(3) 0.033(3) 0.027(3) -0.001(3) 0.000(2) -0.005(2)
C15 0.025(3) 0.047(3) 0.028(3) -0.003(3) -0.007(2) 0.013(2)
N4 0.049(3) 0.090(4) 0.069(5) 0.018(4) 0.004(3) 0.025(3)
C016 0.029(3) 0.022(3) 0.033(3) -0.007(2) -0.007(2) -0.001(2)
C23 0.029(3) 0.058(4) 0.048(5) -0.011(4) -0.001(3) 0.012(3)
C22 0.047(4) 0.069(4) 0.048(4) -0.021(4) -0.001(3) 0.002(3)
loop_
_atom_type_symbol
_atom_type_description
_atom_type_scat_dispersion_real
_atom_type_scat_dispersion_imag
_atom_type_scat_source
C C 0.0033 0.0016 'International Tables Vol C Tables 4.2.6.8 and 6.1.1.4'
H H 0.0000 0.0000 'International Tables Vol C Tables 4.2.6.8 and 6.1.1.4'
F F 0.0171 0.0103 'International Tables Vol C Tables 4.2.6.8 and 6.1.1.4'
N N 0.0061 0.0033 'International Tables Vol C Tables 4.2.6.8 and 6.1.1.4'
O O 0.0106 0.0060 'International Tables Vol C Tables 4.2.6.8 and 6.1.1.4'
S S 0.1246 0.1234 'International Tables Vol C Tables 4.2.6.8 and 6.1.1.4'
loop_
_geom_angle_atom_site_label_1
_geom_angle_atom_site_label_2
_geom_angle_atom_site_label_3
_geom_angle
O2 S1 C20 102.6(2)
O1 S1 O2 114.8(2)
O1 S1 O3 115.4(2)
O1 S1 C20 103.4(2)
O3 S1 O2 114.8(2)
O3 S1 C20 103.4(2)
O4 S2 C21 102.7(2)
O6 S2 O4 115.9(3)
O6 S2 O5 114.3(3)
O6 S2 C21 103.5(3)
O5 S2 O4 114.9(2)
O5 S2 C21 103.1(3)
C1 N1 C12 123.6(4)
C1 N1 C2 107.5(4)
C2 N1 C12 128.6(4)
C1 N2 C17 124.0(3)
C1 N2 C3 108.0(4)
C3 N2 C17 128.1(4)
C00I N3 C7 124.6(3)
C4 N3 C00I 123.4(3)
C4 N3 C7 111.9(3)
N1 C1 C4 125.3(4)
N2 C1 N1 109.0(3)
N2 C1 C4 125.7(4)
N3 C00I H00I 106.5
N3 C00I C00W 112.0(4)
N3 C00I C016 112.6(3)
C00W C00I H00I 106.5
C00W C00I C016 112.2(4)
C016 C00I H00I 106.5
N1 C12 H12 107.2
N1 C12 C13 112.7(4)
N1 C12 C14 110.1(4)
C13 C12 H12 107.2
C13 C12 C14 112.1(4)
C14 C12 H12 107.2
C4 C5 C6 99.8(3)
C4 C5 C11 111.1(4)
C4 C5 C10 111.3(4)
C11 C5 C6 114.1(4)
C11 C5 C10 108.5(4)
C10 C5 C6 111.9(4)
N2 C17 H17 107.2
N2 C17 C19 111.2(4)
N2 C17 C18 111.8(4)
C19 C17 H17 107.2
C19 C17 C18 112.0(4)
C18 C17 H17 107.2
N1 C2 C15 123.6(4)
C3 C2 N1 107.6(4)
C3 C2 C15 128.8(4)
H9A C9 H9B 109.5
H9A C9 H9C 109.5
H9B C9 H9C 109.5
C7 C9 H9A 109.5
C7 C9 H9B 109.5
C7 C9 H9C 109.5
N2 C3 C16 124.6(4)
C2 C3 N2 107.9(4)
C2 C3 C16 127.5(4)
N3 C4 C1 122.2(3)
N3 C4 C5 114.2(3)
C1 C4 C5 123.6(3)
C5 C6 H6A 110.1
C5 C6 H6B 110.1
H6A C6 H6B 108.5
C7 C6 C5 107.8(3)
C7 C6 H6A 110.1
C7 C6 H6B 110.1
C12 C13 H13A 109.5
C12 C13 H13B 109.5
C12 C13 H13C 109.5
H13A C13 H13B 109.5
H13A C13 H13C 109.5
H13B C13 H13C 109.5
C3 C16 H16A 109.5
C3 C16 H16B 109.5
C3 C16 H16C 109.5
H16A C16 H16B 109.5
H16A C16 H16C 109.5
H16B C16 H16C 109.5
C5 C11 H11A 109.5
C5 C11 H11B 109.5
C5 C11 H11C 109.5
H11A C11 H11B 109.5
H11A C11 H11C 109.5
H11B C11 H11C 109.5
H8A C8 H8B 109.5
H8A C8 H8C 109.5
H8B C8 H8C 109.5
C7 C8 H8A 109.5
C7 C8 H8B 109.5
C7 C8 H8C 109.5
C00I C00W H00A 109.5
C00I C00W H00B 109.5
C00I C00W H00C 109.5
H00A C00W H00B 109.5
H00A C00W H00C 109.5
H00B C00W H00C 109.5
C12 C14 H14A 109.5
C12 C14 H14B 109.5
C12 C14 H14C 109.5
H14A C14 H14B 109.5
H14A C14 H14C 109.5
H14B C14 H14C 109.5
C9 C7 N3 109.0(3)
C9 C7 C6 113.0(4)
C6 C7 N3 100.0(3)
C8 C7 N3 113.0(4)
C8 C7 C9 110.6(4)
C8 C7 C6 110.8(4)
C5 C10 H10A 109.5
C5 C10 H10B 109.5
C5 C10 H10C 109.5
H10A C10 H10B 109.5
H10A C10 H10C 109.5
H10B C10 H10C 109.5
C17 C19 H19A 109.5
C17 C19 H19B 109.5
C17 C19 H19C 109.5
H19A C19 H19B 109.5
H19A C19 H19C 109.5
H19B C19 H19C 109.5
C17 C18 H18A 109.5
C17 C18 H18B 109.5
C17 C18 H18C 109.5
H18A C18 H18B 109.5
H18A C18 H18C 109.5
H18B C18 H18C 109.5
F6 C21 S2 111.8(4)
F6 C21 F4 107.4(4)
F5 C21 S2 112.3(4)
F5 C21 F6 108.6(4)
F5 C21 F4 105.9(5)
F4 C21 S2 110.6(4)
F2 C20 S1 112.0(4)
F2 C20 F3 106.4(4)
F3 C20 S1 112.2(3)
F1 C20 S1 112.1(3)
F1 C20 F2 106.6(4)
F1 C20 F3 107.2(4)
C2 C15 H15A 109.5
C2 C15 H15B 109.5
C2 C15 H15C 109.5
H15A C15 H15B 109.5
H15A C15 H15C 109.5
H15B C15 H15C 109.5
C00I C016 H01A 109.5
C00I C016 H01B 109.5
C00I C016 H01C 109.5
H01A C016 H01B 109.5
H01A C016 H01C 109.5
H01B C016 H01C 109.5
N4 C23 C22 178.6(7)
C23 C22 H22A 109.5
C23 C22 H22B 109.5
C23 C22 H22C 109.5
H22A C22 H22B 109.5
H22A C22 H22C 109.5
H22B C22 H22C 109.5
loop_
_geom_bond_atom_site_label_1
_geom_bond_atom_site_label_2
_geom_bond_distance
S1 O2 1.441(3)
S1 O1 1.428(3)
S1 O3 1.434(3)
S1 C20 1.816(5)
S2 O4 1.436(4)
S2 O6 1.422(4)
S2 O5 1.435(4)
S2 C21 1.808(5)
F2 C20 1.334(5)
F3 C20 1.336(6)
N1 C1 1.352(5)
N1 C12 1.490(6)
N1 C2 1.396(5)
F1 C20 1.332(5)
F6 C21 1.323(6)
N2 C1 1.342(6)
N2 C17 1.476(6)
N2 C3 1.389(5)
N3 C00I 1.501(5)
N3 C4 1.284(5)
N3 C7 1.540(5)
F5 C21 1.305(6)
F4 C21 1.336(6)
C1 C4 1.487(5)
C00I H00I 1.0000
C00I C00W 1.512(6)
C00I C016 1.515(6)
C12 H12 1.0000
C12 C13 1.517(6)
C12 C14 1.525(6)
C5 C4 1.519(6)
C5 C6 1.546(6)
C5 C11 1.525(6)
C5 C10 1.533(6)
C17 H17 1.0000
C17 C19 1.520(6)
C17 C18 1.534(6)
C2 C3 1.346(6)
C2 C15 1.493(6)
C9 H9A 0.9800
C9 H9B 0.9800
C9 H9C 0.9800
C9 C7 1.518(7)
C3 C16 1.487(6)
C6 H6A 0.9900
C6 H6B 0.9900
C6 C7 1.529(6)
C13 H13A 0.9800
C13 H13B 0.9800
C13 H13C 0.9800
C16 H16A 0.9800
C16 H16B 0.9800
C16 H16C 0.9800
C11 H11A 0.9800
C11 H11B 0.9800
C11 H11C 0.9800
C8 H8A 0.9800
C8 H8B 0.9800
C8 H8C 0.9800
C8 C7 1.510(6)
C00W H00A 0.9800
C00W H00B 0.9800
C00W H00C 0.9800
C14 H14A 0.9800
C14 H14B 0.9800
C14 H14C 0.9800
C10 H10A 0.9800
C10 H10B 0.9800
C10 H10C 0.9800
C19 H19A 0.9800
C19 H19B 0.9800
C19 H19C 0.9800
C18 H18A 0.9800
C18 H18B 0.9800
C18 H18C 0.9800
C15 H15A 0.9800
C15 H15B 0.9800
C15 H15C 0.9800
N4 C23 1.123(8)
C016 H01A 0.9800
C016 H01B 0.9800
C016 H01C 0.9800
C23 C22 1.456(10)
C22 H22A 0.9800
C22 H22B 0.9800
C22 H22C 0.9800
loop_
_geom_torsion_atom_site_label_1
_geom_torsion_atom_site_label_2
_geom_torsion_atom_site_label_3
_geom_torsion_atom_site_label_4
_geom_torsion
N1 C1 C4 N3 92.4(5)
N1 C1 C4 C5 -88.9(5)
N1 C2 C3 N2 1.0(5)
N1 C2 C3 C16 179.7(4)
O2 S1 C20 F2 61.1(4)
O2 S1 C20 F3 -58.4(4)
O2 S1 C20 F1 -179.1(4)
N2 C1 C4 N3 -88.1(5)
N2 C1 C4 C5 90.6(5)
O4 S2 C21 F6 177.9(4)
O4 S2 C21 F5 -59.8(4)
O4 S2 C21 F4 58.3(4)
O1 S1 C20 F2 -58.5(4)
O1 S1 C20 F3 -178.1(3)
O1 S1 C20 F1 61.2(4)
O3 S1 C20 F2 -179.2(3)
O3 S1 C20 F3 61.2(4)
O3 S1 C20 F1 -59.5(4)
O6 S2 C21 F6 57.0(5)
O6 S2 C21 F5 179.3(4)
O6 S2 C21 F4 -62.6(5)
C1 N1 C12 C13 119.1(4)
C1 N1 C12 C14 -115.0(4)
C1 N1 C2 C3 -0.9(5)
C1 N1 C2 C15 -179.2(4)
C1 N2 C17 C19 113.7(4)
C1 N2 C17 C18 -120.4(4)
C1 N2 C3 C2 -0.8(5)
C1 N2 C3 C16 -179.5(4)
C00I N3 C4 C1 -4.4(6)
C00I N3 C4 C5 176.8(4)
C00I N3 C7 C9 78.5(5)
C00I N3 C7 C6 -162.8(4)
C00I N3 C7 C8 -45.0(5)
C12 N1 C1 N2 175.2(4)
C12 N1 C1 C4 -5.2(6)
C12 N1 C2 C3 -175.3(4)
C12 N1 C2 C15 6.3(7)
O5 S2 C21 F6 -62.4(5)
O5 S2 C21 F5 59.9(5)
O5 S2 C21 F4 178.0(4)
C5 C6 C7 N3 -24.8(4)
C5 C6 C7 C9 91.0(4)
C5 C6 C7 C8 -144.2(4)
C17 N2 C1 N1 -179.2(4)
C17 N2 C1 C4 1.2(6)
C17 N2 C3 C2 178.7(4)
C17 N2 C3 C16 -0.1(7)
C2 N1 C1 N2 0.4(4)
C2 N1 C1 C4 180.0(4)
C2 N1 C12 C13 -67.2(5)
C2 N1 C12 C14 58.7(5)
C3 N2 C1 N1 0.2(4)
C3 N2 C1 C4 -179.3(4)
C3 N2 C17 C19 -65.7(5)
C3 N2 C17 C18 60.3(5)
C4 N3 C00I C00W -109.7(5)
C4 N3 C00I C016 122.8(4)
C4 N3 C7 C9 -100.5(4)
C4 N3 C7 C6 18.2(5)
C4 N3 C7 C8 136.0(4)
C4 C5 C6 C7 22.7(4)
C6 C5 C4 N3 -11.6(5)
C6 C5 C4 C1 169.6(4)
C11 C5 C4 N3 109.1(4)
C11 C5 C4 C1 -69.7(5)
C11 C5 C6 C7 -95.8(4)
C7 N3 C00I C00W 71.4(5)
C7 N3 C00I C016 -56.0(5)
C7 N3 C4 C1 174.6(4)
C7 N3 C4 C5 -4.2(5)
C10 C5 C4 N3 -129.9(4)
C10 C5 C4 C1 51.3(6)
C10 C5 C6 C7 140.5(4)
C15 C2 C3 N2 179.2(4)
C15 C2 C3 C16 -2.1(9)
loop_
_refln_index_h
_refln_index_k
_refln_index_l
_refln_F_squared_meas
_refln_F_squared_sigma
0 0 1 -8.2 1.2
0 0 2 9907.51 602.64
0 0 2 9429.76 602.94
0 0 2 9999 603.34
0 0 3 -1.5 1.5
0 0 3 -0.7 1.5
0 0 3 -2.6 1.7
0 0 4 101.49 8.3
0 0 4 93.09 8.9
0 0 4 99.99 9.5
0 0 5 -2.3 2.3
0 0 5 -1.4 2.1
0 0 5 -1.5 2.4
0 0 -6 69.29 7.7
0 0 6 55.99 8.6
0 0 6 66.19 7.6
0 0 6 61.89 8.7
0 0 7 -0.8 3.4
0 0 7 -1.9 2.6
0 0 7 -4.4 2.4
0 0 8 880.71 59.89
0 0 8 855.81 56.69
0 0 8 828.32 58.79
0 0 9 4.8 5.2
0 0 9 -2.2 3.9
0 0 10 1617.04 108.89
0 0 10 1613.04 107.79
0 0 11 3.1 5.6
0 0 11 6 5.4
0 0 12 120.59 17.8
0 0 12 106.49 18.1
0 1 12 7.2 6.4
0 1 12 11 6.5
0 1 11 12.2 7.3
0 1 11 12.6 7.2
0 1 10 -3.1 4
0 1 10 3.6 5.1
0 1 9 111.99 15.3
0 1 9 93.19 14.1
0 1 8 -3 2.7
0 1 8 4.3 4
0 1 8 2.6 3.4
0 1 7 140.59 15.8
0 1 7 154.78 16.5
0 1 7 170.38 13.3
0 -1 -7 144.79 13.8
0 1 6 -1 2.7
0 1 6 1.5 2.4
0 1 6 1.1 2.7
0 1 5 439.96 31.3
0 1 5 428.86 29.8
0 1 5 464.05 31.4
0 1 4 -0.3 1.5
0 1 4 0.1 2
0 1 4 -0.7 1.8
0 1 3 44.2 5.7
0 1 3 55.49 5.9
0 1 2 1.5 1.3
0 1 2 -0.6 1.3
0 1 1 596.34 37.7
0 1 1 579.04 37.6
0 1 1 596.24 37.2
0 -1 -1 621.84 37.3
0 1 0 -1.1 0.5
0 1 0 -1.7 0.8
0 -1 0 -1.6 0.5
0 -1 0 -2.3 0.4
0 1 -1 586.94 37
0 -1 1 574.64 37.4
0 -1 1 625.84 37.7
0 -1 2 -1.7 1
0 -1 2 -0.3 1
0 -1 2 -0.9 1.2
0 -1 3 46.9 5.1
0 -1 3 54.29 6.4
0 -1 3 42.8 4.9
0 -1 4 0.2 1.8
0 -1 4 -3.2 1.2
0 -1 4 0.5 2
0 -1 5 439.76 30.9
0 -1 5 419.76 28.9
0 -1 5 420.46 29.5
0 -1 6 2 3.2
0 -1 6 4.9 2.4
0 -1 6 -1.3 2.5
0 -1 7 138.19 15.7
0 -1 7 147.69 13.6
0 -1 7 134.49 12.2
0 -1 8 -4.1 3
0 -1 8 -0.5 3.3
0 -1 8 2 4.5
0 -1 9 66.89 11.2
0 -1 9 61.79 11.7
0 -1 11 14.6 6.8
0 -1 11 11.5 6.7
0 -1 12 20.2 7.9
0 2 12 27 10
0 2 12 30.1 10.7
0 2 11 6.7 6.6
0 2 11 12.3 6.4
0 2 10 14.6 7.1
0 2 10 15.1 7.1
0 2 9 3.1 5.1
0 2 9 4.4 4.8
0 2 8 -2.5 3.8
0 2 8 -0.6 4.1
0 2 7 0.4 3.3
0 2 7 3.1 3
0 2 7 1.8 3.3
0 2 6 163.08 14
0 2 6 147.09 12.4
0 2 6 146.99 14.3
0 2 5 -2.3 2
0 2 5 0.7 2.3
0 2 4 142.39 12.2
0 2 4 138.19 11.2
0 2 3 -0.6 1.8
0 -2 -3 1.1 1.9
0 -2 -3 -4.6 1.7
0 -2 -3 0.1 1
0 2 2 77.09 5.2
0 2 2 65.29 5.1
0 2 2 75.09 6.2
0 2 2 65.99 6.5
0 2 2 82.89 6.7
0 -2 -2 69.09 6.9
0 -2 -2 70.89 6.9
0 -2 -2 81.89 5.8
0 2 1 0.5 0.9
0 2 1 -0.8 0.9
0 2 1 -1.5 1.1
0 2 1 0.8 1.8
0 -2 -1 0.8 1.6
0 -2 -1 -0.9 0.9
0 -2 -1 0.4 1.6
0 2 0 1422.16 87.39
0 2 0 1518.85 88.49
0 -2 0 1254.47 87.09
0 2 -1 0.5 0.9
0 2 -1 0.7 1.2
0 -2 1 -0.8 1
0 2 -2 66.69 5.5
0 2 -2 71.09 6.5
0 -2 2 75.79 6.1
0 -2 2 79.39 6.8
0 2 -3 -0.4 0.8
0 2 -3 0.6 1.4
0 -2 3 -1.3 1.9
0 -2 3 -0.5 1.2
0 -2 4 159.48 13.4
0 -2 4 151.88 11.7
0 -2 5 -1.3 1.8
0 -2 5 -2.6 2.2
0 -2 6 148.99 14.4
0 -2 6 140.79 12.5
0 -2 7 -4.2 2.8
0 -2 7 -4 2.1
0 -2 8 -0.8 4.2
0 -2 8 5.7 4
0 -2 9 11.4 5.6
0 -2 9 -2.4 3.8
0 -2 10 17.2 7.2
0 -2 10 15.1 6.5
0 -2 11 -1.5 4.9
0 -2 12 17.7 7.9
0 3 12 5 6.3
0 3 11 24 8.5
0 3 10 0.1 4.4
0 3 9 125.39 15.7
0 3 9 107.49 15.5
0 3 8 11.1 5.1
0 3 8 -1.3 3.9
0 3 7 25.8 6
0 3 7 20.3 6
0 3 7 22.2 4.9
0 3 6 1.7 3
0 3 5 34.3 6.2
0 -3 -5 24.3 3.3
0 3 4 0.9 2.3
0 -3 -4 2.6 1.5
0 3 3 92.79 8.1
0 3 3 82.29 6.1
0 3 3 91.79 7.8
0 3 3 89.19 8.6
0 -3 -3 90.79 7.1
0 -3 -3 106.49 9.4
0 3 2 -0.1 2
0 3 2 -1.1 1.1
0 3 2 0.5 2.9
0 3 2 -0.4 1.8
0 -3 -2 -2 1.2
0 -3 -2 -2.6 2.1
0 -3 -2 -1.3 2.1
0 3 1 4615.74 294.17
0 3 1 4495.55 292.57
0 3 1 4783.02 294.37
0 3 1 4593.04 292.67
0 -3 -1 4609.74 292.47
0 -3 -1 5411.86 294.47
0 -3 -1 4588.74 294.47
0 3 0 -2.2 1.7
0 3 0 0.7 1.3
0 3 0 -1.7 1.6
0 -3 0 -0.5 1.6
0 -3 0 1 1.3
0 3 -1 4927.21 346.87
0 3 -1 6290.77 348.97
0 -3 1 5617.64 348.47
0 3 -2 -2.8 1.7
0 3 -2 -1.4 1.2
0 -3 2 -0.1 1.7
0 -3 2 0.2 1.9
0 3 -3 78.19 8.2
0 3 -3 90.79 6.9
0 -3 3 84.59 7.1
0 -3 3 82.89 6.4
0 -3 3 82.69 8
0 -3 3 70.09 8.6
0 3 -4 0 1.2
0 -3 4 0.6 2.3
0 -3 4 -1.1 1.4
0 3 -5 24.6 3.2
0 -3 5 31.6 6.3
0 -3 5 27 4.4
0 -3 6 -2.7 2.5
0 -3 6 1 2.3
0 -3 7 22.7 6.7
0 -3 7 16.3 4.5
0 -3 8 -1.6 3.2
0 -3 8 4.2 4.2
0 -3 9 114.69 16.1
0 -3 9 101.19 13.3
0 -3 10 1.9 5
0 -3 11 19 6.9
0 -3 12 4.1 5.5
0 4 12 31.3 10.9
0 4 11 4 6.8
0 4 10 24.3 8.6
0 4 9 -4.8 3.6
0 4 8 37.1 8.4
0 4 7 -6.8 2.6
0 4 6 193.48 17.6
0 4 5 2 2.9
0 -4 -5 -1.6 1.6
0 4 4 19.9 5
0 -4 -4 23.9 3.6
0 4 3 -0.1 1.3
0 4 3 0 2.2
0 4 3 -3.1 1.6
0 4 3 -2.8 2.1
0 -4 -3 -1.6 1.4
0 -4 -3 2.6 2.7
0 4 2 100.79 10.2
0 4 2 92.59 8.7
0 4 2 103.69 8.4
0 4 2 92.39 9.9
0 -4 -2 107.49 10.6
0 -4 -2 89.09 8
0 -4 -2 96.29 10.2
0 4 1 0.8 2.2
0 4 1 -0.5 1.3
0 4 1 -1.7 2.2
0 4 1 -1.4 1.5
0 -4 -1 -0.6 1.5
0 -4 -1 -2.2 2.5
0 4 0 1913.91 113.69
0 4 0 1906.71 114.89
0 -4 0 1606.14 116.39
0 -4 0 1879.61 114.49
0 4 -1 0.1 2.2
0 4 -1 -1.7 1.5
0 -4 1 3.4 2.9
0 4 -2 109.79 10.7
0 4 -2 99.79 8.4
0 -4 2 89.79 8.7
0 -4 2 92.79 9.8
0 4 -3 2.5 2.9
0 4 -3 2.4 1.7
0 -4 3 -0.1 1.9
0 -4 3 0.4 2.1
0 -4 3 -2.2 1.5
0 4 -4 19.8 3.5
0 -4 4 23 3.2
0 -4 4 20 5.1
0 4 -5 -1.9 1.4
0 -4 5 -0.3 2.6
0 -4 5 2.9 2
0 -4 6 176.68 14
0 -4 6 175.78 16.6
0 -4 7 -1.5 2.4
0 -4 7 -3.6 2.8
0 -4 8 41.5 9.5
0 -4 9 -4.1 4.2
0 -4 10 19.9 7.5
0 -4 11 4.8 6.3
0 -4 12 14.5 7.7
0 5 12 -2.2 5.5
0 5 11 6.4 6
0 5 10 -0.7 4.8
0 5 9 55.29 11.9
0 5 8 -4 4
0 5 7 286.47 24.6
0 5 6 0.5 3.5
0 5 5 19.8 5.4
0 -5 -5 19.7 3.9
0 5 4 -0.8 3
0 5 4 -1.1 2.3
0 5 4 0.7 1.4
0 5 4 0.4 2.6
0 -5 -4 0.5 2.2
0 5 3 620.24 40.3
0 5 3 613.14 41.6
0 5 3 621.54 42.7
0 5 3 607.04 42.7
0 -5 -3 598.44 43.4
0 -5 -3 607.44 40.4
0 5 2 -1.6 1.6
0 5 2 -2.3 2.1
0 5 2 -0.7 1.8
0 5 2 -1 2
0 -5 -2 -2.7 3.4
0 -5 -2 1.4 2.9
0 -5 -2 0.4 1.9
0 5 1 677.53 44.4
0 5 1 604.34 41.4
0 5 1 600.54 43.9
0 5 1 611.74 40.7
0 -5 -1 608.74 41
0 -5 -1 632.54 44
0 5 0 -3.7 1.6
0 5 0 0.6 3
0 5 0 -0.8 2.6
0 5 0 -2.8 1.3
0 -5 0 -3.4 1.3
0 -5 0 1 3.3
0 5 -1 581.04 44.4
0 5 -1 598.94 42.5
0 -5 1 754.82 45.8
0 5 -2 1.7 2.1
0 5 -2 -2.5 2.4
0 -5 2 -0.2 2
0 -5 2 1.8 2.8
0 5 -3 550.84 40.8
0 5 -3 563.74 38.4
0 -5 3 597.94 38.9
0 -5 3 578.84 39.6
0 -5 3 582.24 40.2
0 5 -4 3 2.3
0 -5 4 0.5 2.7
0 -5 4 -1.4 2.8
0 -5 4 0.3 2.1
0 -5 4 -2 1.2
0 5 -5 19.5 3.9
0 -5 5 17.3 5.3
0 -5 5 23 3.5
0 -5 6 2.1 4.1
0 -5 7 312.47 26.6
0 -5 8 -1.5 4.4
0 -5 9 35.6 9.9
0 -5 10 0 5.5
0 -5 11 -3.3 4.4
0 -5 12 6.6 6.1
0 6 11 1.1 6.4
0 6 10 8.4 6.2
0 6 9 -1.4 4.8
0 6 8 18 7.1
0 6 7 -3.8 3.8
0 6 6 21.2 6.7
0 6 5 0.4 2.5
0 6 5 0.1 3.2
0 6 5 0.4 3
0 6 5 1 0.9
0 -6 -5 -0.5 2.3
0 6 4 261.97 18.4
0 6 4 260.97 21.2
0 6 4 272.37 21
0 6 4 247.68 21.2
0 -6 -4 239.78 24.7
0 -6 -4 257.87 19.2
0 6 3 2.9 2.3
0 6 3 0.8 3.2
0 6 3 -1 2.5
0 6 3 -0.7 3.3
0 -6 -3 1.3 2.3
0 -6 -3 1.3 3.6
0 6 2 16.5 4.2
0 6 2 18.7 6.1
0 6 2 16.9 4.1
0 6 2 30.1 6.9
0 -6 -2 17 4.2
0 -6 -2 21.1 7.4
0 6 1 -1.3 1.7
0 6 1 -0.6 2.7
0 6 1 0.9 1.7
0 6 1 -0.2 2.3
0 -6 -1 0.8 2.3
0 -6 -1 2.4 3.6
0 6 0 64.39 10.4
0 6 0 104.19 9.1
0 6 0 87.39 7.2
0 6 0 120.99 12.7
0 -6 0 94.09 8.6
0 -6 0 59.59 10.4
0 6 -1 -0.3 2.1
0 6 -1 -1.4 2.9
0 -6 1 3.9 4.3
0 6 -2 16.4 4
0 6 -2 11.1 4.2
0 -6 2 23.5 4.8
0 -6 2 15.8 5.2
0 6 -3 1.8 3.7
0 6 -3 -2.1 2
0 -6 3 -0.2 3
0 -6 3 3.2 3.2
0 6 -4 247.38 18.8
0 -6 4 264.87 21
0 -6 4 220.08 19.1
0 -6 4 255.27 20.4
0 6 -5 0.9 2.6
0 -6 5 -1.1 1.9
0 -6 5 0 2.9
0 -6 5 -1.6 2.7
0 -6 6 20.9 6.4
0 -6 7 5.5 5.8
0 -6 8 31.6 9.1
0 -6 9 1.1 5.1
0 -6 10 -0.7 5.2
0 -6 11 7.9 6.3
0 7 11 8.7 7.6
0 7 10 -4.9 3.8
0 7 9 9.4 6.9
0 7 8 5.2 5.4
0 7 7 223.78 21.5
0 7 6 1 3.9
0 7 5 231.18 19.5
0 7 5 186.58 18.9
0 7 5 212.18 19.5
0 7 5 246.28 16
0 -7 -5 232.58 18
0 7 4 1.1 3.3
0 7 4 0.8 2.1
0 7 4 -0.4 3.1
0 7 4 1.5 3.1
0 -7 -4 -0.6 2.3
0 -7 -4 1.8 4.9
0 7 3 746.73 55.09
0 7 3 818.82 52.79
0 7 3 805.02 52.09
0 7 3 716.43 54.79
0 -7 -3 822.72 51.99
0 7 2 -3.9 1.8
0 7 2 -0.4 2.8
0 7 2 -2 3
0 7 2 0.8 2
0 -7 -2 0.2 4
0 -7 -2 3.5 2.4
0 7 1 642.74 47.2
0 7 1 649.14 42.2
0 7 1 632.64 46.9
0 7 1 621.94 43.4
0 -7 -1 593.64 46.6
0 -7 -1 675.63 43.2
0 7 0 0.3 3.3
0 7 0 -0.6 3.1
0 7 0 -0.9 1.4
0 7 0 5.7 3.3
0 -7 0 -0.2 3.6
0 -7 0 -2.7 1.8
0 7 -1 656.83 47.8
0 7 -1 685.53 48.1
0 7 -1 652.73 43.8
0 -7 1 566.54 46.2
0 7 -2 -2.7 3.5
0 7 -2 -1.1 2.2
0 -7 2 0.1 3.1
0 7 -3 775.12 51.29
0 7 -3 720.13 54.09
0 -7 3 770.52 54.19
0 -7 3 778.72 52.09
0 7 -4 3.9 4.2
0 7 -4 -1.8 2.4
0 -7 4 1.1 3.2
0 -7 4 -3.2 2.2
0 -7 4 -1.2 2.7
0 7 -5 230.98 18.4
0 -7 5 214.68 18.7
0 -7 5 221.68 19.4
0 -7 5 238.08 20.7
0 -7 6 0.5 4
0 -7 7 215.18 24.1
0 -7 8 -0.7 5.3
0 -7 9 16.1 8.3
0 -7 10 5.5 6.4
0 -7 11 6.3 6.7
0 8 11 2.2 7.6
0 8 10 47.5 11.8
0 8 9 -1.9 5.7
0 8 8 55.29 11.9
0 8 7 -3.6 4.5
0 8 6 133.29 13.7
0 8 6 130.19 13.3
0 8 6 156.68 17.4
0 -8 -6 162.58 21.1
0 8 5 -3.5 2.5
0 8 5 0.2 2
0 8 5 -1.1 3.4
0 8 5 3.2 4.2
0 -8 -5 -0.7 2.9
0 8 4 14.9 6.2
0 8 4 12.2 5.4
0 8 4 15.1 4.2
0 8 4 20.2 5.4
0 -8 -4 16.5 4.5
0 8 3 -2.4 2.2
0 8 3 -0.7 3.2
0 8 3 2.3 4.5
0 8 3 0.3 2.7
0 -8 -3 -1.7 2.6
0 8 2 9.6 5.5
0 8 2 13.4 6.2
0 8 2 11 4.2
0 8 2 17.2 4.4
0 -8 -2 2.9 4.5
0 -8 -2 9.3 3.7
0 8 1 5.9 4.5
0 8 1 2.8 3.8
0 8 1 0 1.8
0 8 1 -0.7 2.4
0 -8 -1 -0.4 4.5
0 -8 -1 1.2 2.6
0 8 0 0.5 3
0 8 0 0.8 1.6
0 8 0 -1.5 3.4
0 8 0 -1.9 2.6
0 -8 0 0 3.9
0 -8 0 0.5 2.4
0 8 -1 2.9 3
0 8 -1 -1.1 3.6
0 8 -1 2.1 3.6
0 -8 1 0.8 3.9
0 8 -2 7 3.5
0 8 -2 10.4 6.7
0 -8 2 13.5 6
0 -8 2 7.1 3.4
0 8 -3 -1.9 2.3
0 -8 3 -2.5 3.1
0 -8 3 0.3 3.6
0 8 -4 14.7 4.9
0 -8 4 18.5 6.2
0 -8 4 21.4 6.5
0 -8 4 7.7 4.3
0 8 -5 -1.7 2.9
0 -8 5 -2.3 2.7
0 -8 5 -0.9 3.4
0 -8 5 -1.2 3.9
0 -8 6 142.99 18.4
0 -8 6 145.29 13.1
0 -8 7 4.9 5.5
0 -8 8 46.3 12.1
0 -8 9 -1.6 6.7
0 -8 10 32.6 11.3
0 -8 11 -1.2 5.5
0 9 10 -2.8 5.4
0 9 9 128.59 18.6
0 9 8 0 5.4
0 9 7 157.28 19.6
0 9 6 -1.3 4.7
0 9 6 0.3 4
0 9 6 -4.6 4.3
0 -9 -6 -2.2 4.1
0 9 5 11.4 5.9
0 9 5 16.5 5.8
0 9 5 11.1 3.8
0 9 5 10.8 6.4
0 -9 -5 5.5 4
0 9 4 -0.7 3.6
0 9 4 5.3 5.3
0 9 4 1 3.7
0 9 4 -0.4 2.5
0 -9 -4 -2.3 3
0 9 3 13.8 4.9
0 9 3 24.8 8.5
0 9 3 12.6 7.1
0 9 3 22.3 5.5
0 -9 -3 16.3 4.9
0 9 2 0.9 2.7
0 9 2 -2.4 3.3
0 9 2 -0.3 2.6
0 -9 -2 0.2 2.8
0 9 1 795.12 53.49
0 9 1 762.92 58.09
0 9 1 775.02 51.29
0 -9 -1 780.82 52.99
0 9 0 1.4 2.3
0 9 0 -3.5 2.7
0 -9 0 3 3.2
0 9 -1 779.52 53.89
0 9 -2 2.8 3.4
0 -9 2 3.3 3.2
0 9 -3 16.6 5.7
0 -9 3 18.9 7.3
0 -9 3 17.1 6
0 9 -4 -2.9 3.1
0 -9 4 -0.9 3.5
0 -9 4 -3.5 3.9
0 -9 4 4.8 5
0 9 -5 12.8 5.4
0 -9 5 15.4 6.2
0 -9 5 7.1 5.5
0 -9 6 -0.3 3.3
0 -9 6 -6 4.7
0 -9 7 115.29 17.8
0 -9 8 -2.2 5.3
0 -9 9 149.39 21.4
0 -9 10 -7 6.8
0 10 9 4.3 6.1
0 10 8 100.59 16.2
0 10 7 -0.6 4.6
0 10 6 80.89 13.4
0 10 6 120.59 16
0 10 6 131.49 15.6
0 -10 -6 107.89 14.2
0 10 5 5.9 5.2
0 10 5 1.4 3
0 10 5 -2.3 4
0 10 5 2.5 4.2
0 -10 -5 -1.3 3.5
0 10 4 194.28 16.4
0 10 4 164.28 19.5
0 10 4 181.28 16.7
0 -10 -4 136.29 16.1
0 10 3 -4 3.9
0 10 3 0.6 3.2
0 10 3 0.6 3.2
0 -10 -3 -3.3 3.1
0 10 2 363.16 26.2
0 10 2 353.86 28
0 -10 -2 333.77 27.1
0 10 1 2.2 2.9
0 10 1 0.4 3.1
0 -10 -1 -2.5 2.9
0 10 0 1124.39 73.89
0 -10 0 1058.59 72.39
0 10 -1 -1.8 3.2
0 10 -2 355.06 29.1
0 -10 2 389.76 29
0 10 -3 -3.2 3.2
0 -10 3 4.3 4.2
0 10 -4 144.49 17.1
0 -10 4 170.28 18.9
0 -10 4 157.88 15.9
0 10 -5 0.1 4.5
0 -10 5 -4.3 3.7
0 -10 5 0.5 5.3
0 -10 6 132.39 18.2
0 -10 6 77.99 12.2
0 -10 7 -2.5 5.9
0 -10 8 98.89 17.5
0 -10 9 -1.4 7.6
0 -10 10 80.29 16.9
0 11 9 -6.5 6.2
0 11 8 1.9 5.4
0 11 7 57.89 12.6
0 11 6 8.8 6.3
0 11 6 1.8 5.5
0 11 6 -1.7 4.9
0 -11 -6 4.3 5.3
0 11 5 8 5.3
0 11 5 8.2 6.2
0 11 5 3.3 3.8
0 -11 -5 4.9 4.8
0 11 4 -2.4 3.7
0 11 4 -2.2 3.2
0 11 4 -0.3 4.5
0 -11 -4 -4.4 3.8
0 11 3 50.99 8.6
0 11 3 58.89 10
0 -11 -3 49.3 9.3
0 11 2 -3.8 2.9
0 11 2 0.8 3.3
0 -11 -2 3.7 4
0 11 1 67.79 11.1
0 -11 -1 62.69 9.9
0 11 0 -4.8 3.2
0 11 -1 61.89 11.2
0 11 -2 -0.1 4.4
0 -11 2 -2.1 4
0 11 -3 50.29 10
0 -11 3 65.49 11.5
0 11 -4 3.9 4.6
0 -11 4 -4.5 4.5
0 11 -5 -3.7 4.4
0 -11 5 9.4 6.9
0 -11 6 -2.5 6.1
0 -11 6 -2.4 4.1
0 -11 7 66.89 13.6
0 -11 8 -0.8 7
0 -11 9 2.7 7.7
0 12 8 63.59 13.8
0 12 7 3.4 6.7
0 12 6 59.59 11.9
0 -12 -6 79.19 12.8
0 12 5 -1.3 5
0 12 5 -1.5 4.4
0 12 5 0.4 3.7
0 -12 -5 -0.7 4.5
0 12 4 89.29 12.8
0 12 4 104.09 13.3
0 -12 -4 69.09 12.2
0 12 3 2.1 4.1
0 12 3 -2.8 3.1
0 -12 -3 -1.2 4
0 12 2 41.5 9.2
0 -12 -2 36.9 8.3
0 12 1 -1.3 3.9
0 -12 -1 1.9 4.6
0 12 0 199.58 21.3
0 12 -1 -0.8 4.1
0 12 -2 30.3 8.5
0 -12 2 46.8 9.1
0 12 -3 4.2 4.9
0 -12 3 -0.2 4.7
0 12 -4 94.79 14.5
0 -12 4 96.29 15.3
0 12 -5 -2.9 4.4
0 -12 5 3.1 6.9
0 12 -6 79.09 15.4
0 -12 6 62.99 13.8
0 -12 7 -2.3 6
0 -12 8 40 13.1
0 13 7 24.8 9.1
0 13 6 8.1 6.1
0 -13 -6 -0.3 5.5
0 13 5 3.6 5.3
0 13 5 1.4 4.4
0 -13 -5 4 5.8
0 13 4 6.5 5
0 -13 -4 1.6 5.2
0 13 3 10.9 6
0 -13 -3 2.7 5.2
0 13 2 -5.7 3.8
0 -13 -2 4.2 5.1
0 13 1 6.7 5.8
0 13 0 -1.2 4.7
0 13 -1 13.3 6.6
0 -13 1 7 5.4
0 13 -2 2.2 5.1
0 -13 2 -0.7 5.1
0 13 -3 -2.2 5
0 -13 3 5.9 6.6
0 13 -4 1.4 5
0 -13 4 -0.9 6
0 13 -5 3.2 5.7
0 -13 5 3.6 7.6
0 13 -6 5.2 6.6
0 -13 6 -7.6 7
0 -13 7 14.9 9.7
0 14 6 5.4 8.6
0 -14 -6 -0.8 6
0 -14 -5 1.4 5.7
0 14 4 11 6.2
0 -14 -4 29.3 9.4
0 14 3 -1.6 4.5
0 -14 -3 9.4 6.7
0 14 2 37.2 9.2
0 14 1 -0.6 4.9
0 14 0 14.9 7.4
0 14 -1 -4.8 4.6
0 14 -2 47.3 10.4
0 14 -3 1.6 5
0 -14 3 9.7 7.9
0 14 -4 15.6 8.2
0 -14 4 4.4 7.3
0 14 -5 9.1 7.3
0 -14 5 6.5 7.7
0 14 -6 -2.8 6.2
0 -14 6 7.4 8.6
0 15 4 7.3 6.4
0 -15 -4 3.4 7
0 15 3 0.9 5.9
0 15 2 4.2 5.5
0 15 1 8.9 7
0 15 0 -2.7 5
0 15 -1 5.3 7.5
0 15 -2 -4.9 6.2
0 15 -3 6.7 7.3
0 15 -4 -1.2 6.1
0 -15 4 2.9 9.6
0 16 0 58.79 12.9
-1 -15 4 50.39 12.6
1 15 -4 39.3 11.4
1 15 -3 1.9 5.8
1 15 -2 25.7 9.6
1 15 -1 -5.4 5.8
1 15 0 51.49 12
1 15 1 3.3 6.6
1 15 2 49.9 11.6
-1 -15 -3 -1.4 6.1
1 15 3 7.5 6.3
-1 -15 -4 46.7 11.5
1 15 4 69.69 13
-1 -14 6 -3.8 6.3
1 14 -6 4.4 7.3
-1 -14 5 2 7.6
1 14 -5 17.7 9.1
-1 -14 4 3.1 7.6
1 14 -4 -5.3 5.2
-1 -14 3 38.8 10.4
1 14 -3 44.9 10.7
-1 -14 2 20.2 8.2
1 14 -2 18.7 7.5
1 14 -1 80.29 13.5
1 14 0 7.7 6.6
1 14 1 102.29 15.6
-1 -14 -2 29.3 8.5
1 14 2 11.5 6.6
-1 -14 -3 50.49 10.7
1 14 3 54.49 11.4
-1 -14 -4 -2.8 5.3
1 14 4 1.2 5.1
-1 -14 -5 1 6
-1 -14 -6 4.8 7.3
-1 -13 7 11 9.4
-1 -13 6 23.4 10.7
1 13 -6 22.2 10.5
-1 -13 5 23.9 9.4
1 13 -5 19.7 8.2
-1 -13 4 22.2 9.4
1 13 -4 12.1 6.7
-1 -13 3 28.3 8.8
1 13 -3 27.2 8.4
-1 -13 2 21 7.9
1 13 -2 27.9 8.4
1 13 -1 62.29 12.6
1 13 0 -1.6 4
-1 -13 -1 77.39 12.1
1 13 1 69.99 12.7
-1 -13 -2 18.9 6.9
1 13 2 29.8 8.3
-1 -13 -3 31.3 8.4
1 13 3 36.9 9
-1 -13 -4 18.8 7.2
1 13 4 13.1 6.1
-1 -13 -5 29 8.4
1 13 5 9.6 5.6
1 13 5 15.1 6.8
-1 -13 -6 23.6 8.6
1 13 6 28.5 8.7
1 13 7 2.4 6.6
-1 -12 8 10.8 8.6
-1 -12 7 5.9 7.3
-1 -12 6 18.8 9.3
-1 -12 5 24.9 9.2
1 12 -5 29.2 8.5
-1 -12 4 16.3 8.1
1 12 -4 16.3 6.8
-1 -12 3 27.4 8.2
1 12 -3 33.1 8.4
-1 -12 2 6.1 5.4
1 12 -2 4.7 5.4
1 12 -1 31.6 8.4
1 12 0 -2 4.2
-1 -12 -1 36 8.2
1 12 1 26.9 7.3
-1 -12 -2 19.2 6.5
1 12 2 18 6.7
-1 -12 -3 22.8 6.8
1 12 3 33.5 8.4
-1 -12 -4 20.3 7.1
1 12 4 14.5 6.1
1 12 4 19.5 6.7
-1 -12 -5 25.6 7.8
1 12 5 12.7 6.6
1 12 5 39.1 8
1 12 5 15.7 7.7
-1 -12 -6 7.4 5.7
1 12 6 16.5 7.6
1 12 7 20.5 7.9
1 12 8 6.5 7.4
-1 -11 9 -6 8.1
-1 -11 8 4.6 6.7
-1 -11 7 15.3 8.3
-1 -11 6 13.5 7.5
-1 -11 6 2.9 4.7
-1 -11 5 95.99 15
1 11 -5 75.19 12.7
-1 -11 4 38.2 9.5
-1 -11 4 33.5 8.6
1 11 -4 48 9.7
-1 -11 3 103.59 14.1
1 11 -3 112.89 15
1 11 -2 75.49 12.2
1 11 -1 43.3 8.8
-1 -11 0 -1.9 2.9
1 11 0 0.6 3.7
-1 -11 -1 64.79 10.3
1 11 1 54.79 9.7
-1 -11 -2 56.49 9.6
1 11 2 55.29 8.4
1 11 2 62.59 10.5
-1 -11 -3 103.29 13.7
1 11 3 129.79 15.1
1 11 3 129.39 14.4
-1 -11 -4 38.9 8.4
1 11 4 33.1 8
1 11 4 21.9 8.3
1 11 4 39.3 8.1
-1 -11 -5 86.69 11.8
1 11 5 75.39 12
1 11 5 50.49 11.2
1 11 5 72.89 10.2
-1 -11 -6 3.9 4.9
1 11 6 2.2 5.5
1 11 6 1.3 6.1
1 11 6 5.2 5.7
1 11 7 -3.8 4.4
1 11 8 1.9 6.4
1 11 9 2 7.4
-1 -10 10 0.9 7.4
-1 -10 9 17.2 9.3
-1 -10 8 -1.1 5.3
-1 -10 7 72.29 14
-1 -10 6 43.5 10.8
-1 -10 6 48.2 9.3
-1 -10 5 19.9 7.3
-1 -10 5 28.3 8.6
-1 -10 4 56.39 10.8
-1 -10 4 34.8 8.2
1 10 -4 55.89 9.5
-1 -10 3 42.7 8.6
1 10 -3 16.7 5.9
1 10 -2 59.89 9.9
1 10 -1 68.49 10.7
-1 -10 0 6.8 4.1
1 10 0 4.1 4.8
-1 -10 -1 63.19 9.9
1 10 1 83.89 9.3
1 10 1 99.69 12.5
-1 -10 -2 42.1 7.6
1 10 2 10.3 10
1 10 2 52.59 8.9
1 10 2 63.59 8.4
-1 -10 -3 31.7 7.3
1 10 3 26.3 9.1
1 10 3 35.8 7.2
1 10 3 26.1 6.3
-1 -10 -4 37.9 7.6
1 10 4 55.99 8.9
1 10 4 37.5 9.4
1 10 4 66.59 10.2
-1 -10 -5 26.6 6.7
1 10 5 27.8 7.9
1 10 5 24.3 5.7
1 10 5 22.1 7.6
1 10 5 26.9 8.2
-1 -10 -6 37.8 8
1 10 6 46.2 9.6
1 10 6 34.1 9.5
1 10 6 20.2 7.3
1 10 7 62.29 12.3
1 10 8 15.9 8.1
1 10 9 1 7
-1 -9 10 11.3 8.7
-1 -9 9 42.5 11.7
-1 -9 8 17.7 9
-1 -9 7 102.99 16.5
-1 -9 6 6.3 5.9
-1 -9 6 2 3.4
-1 -9 5 15.3 6.1
-1 -9 5 9.3 5.9
-1 -9 5 4.1 4.7
1 9 -5 12.9 5.2
-1 -9 4 32.2 7.3
-1 -9 4 33.1 8.7
-1 -9 4 40.4 8.5
1 9 -4 32 7.1
-1 -9 3 85.19 13.7
-1 -9 3 84.39 11.7
1 9 -3 86.99 11.4
1 9 -2 20.7 5.7
1 9 -1 45.3 8
-1 -9 0 49.9 7.9
1 9 0 48.3 8.2
1 9 0 48.6 6
-1 -9 -1 69.89 9.2
1 9 1 61.29 7.8
1 9 1 69.09 10
1 9 1 63.29 12.9
-1 -9 -2 14.4 5
1 9 2 11.1 5.9
1 9 2 15.5 4.4
1 9 2 18.5 4.8
-1 -9 -3 108.89 12.4
1 9 3 98.39 12.3
1 9 3 108.29 12.7
1 9 3 100.99 16.3
-1 -9 -4 45.4 7.5
1 9 4 29.1 8
1 9 4 25 7.2
1 9 4 42 7.1
1 9 4 26.8 7.1
-1 -9 -5 7.9 4.4
1 9 5 13.7 4.2
1 9 5 9.3 5.8
1 9 5 10.3 5.4
1 9 5 5 4.3
-1 -9 -6 -1.1 3.8
1 9 6 3.9 5.3
1 9 6 0.1 3.7
1 9 6 6.8 4.9
1 9 7 105.29 16
1 9 8 20 8.2
1 9 9 55.59 13.3
1 9 10 32 11
-1 -8 11 7.9 6.3
-1 -8 10 9.4 7.6
-1 -8 9 34.7 11
-1 -8 8 67.19 14
-1 -8 7 8.9 6.4
-1 -8 6 80.69 13
-1 -8 5 1.2 4.7
-1 -8 5 4.8 4.5
-1 -8 5 7.3 4.3
1 8 -5 3.6 3.8
-1 -8 4 99.59 13
-1 -8 4 119.19 14.1
-1 -8 4 112.89 14.2
1 8 -4 94.49 12.1
-1 -8 3 40.9 7.6
-1 -8 3 65.29 11.6
1 8 -3 46.5 7.9
-1 -8 2 3 4.7
1 8 -2 6.6 5.1
1 8 -2 1.9 4.6
1 8 -2 3.4 3
-1 -8 1 57.19 11.8
-1 -8 1 64.59 8.4
1 8 -1 66.39 5.6
1 8 -1 55.49 11.1
1 8 -1 48.1 10.4
1 8 -1 70.29 9.3
-1 -8 0 99.19 10.8
1 8 0 94.39 7.9
1 8 0 95.39 11.5
1 8 0 67.69 11.9
-1 -8 -1 51.79 7.4
-1 -8 -1 62.99 12.5
1 8 1 55.39 7.9
1 8 1 39.5 8.4
1 8 1 29.4 7.5
1 8 1 57.29 6.8
-1 -8 -2 0.5 5.3
-1 -8 -2 -0.4 2.8
1 8 2 3.8 3.9
1 8 2 4.2 3
1 8 2 1.5 4.4
1 8 2 2.1 2.8
-1 -8 -3 46.6 7.3
1 8 3 38.3 7
1 8 3 31.4 7.8
1 8 3 48 7.5
1 8 3 77.99 13.6
-1 -8 -4 120.89 13
1 8 4 117.29 14.7
1 8 4 126.19 14.5
1 8 4 115.19 14.2
1 8 4 121.59 12.6
-1 -8 -5 5.7 3.6
1 8 5 3.6 3.7
1 8 5 5.2 2.7
1 8 5 1.2 4.4
1 8 5 -1.8 3.6
-1 -8 -6 92.59 11.8
1 8 6 102.39 11.4
1 8 6 89.59 11.3
1 8 6 94.69 13.6
1 8 7 6.3 5.3
1 8 8 57.69 11.9
1 8 9 46.3 11.5
1 8 10 17.7 9.2
1 8 11 8.5 9.3
-1 -7 11 4.7 5.8
-1 -7 10 27.8 10.1
-1 -7 9 6.3 6.4
-1 -7 8 4.2 5.6
-1 -7 7 91.89 14.6
-1 -7 6 37.7 8.9
-1 -7 5 37.5 8.1
-1 -7 5 42.6 7.4
-1 -7 5 28.9 7.5
1 7 -5 36.2 6.7
-1 -7 4 36.1 7.8
-1 -7 4 33.3 7.2
-1 -7 4 30.7 6.6
1 7 -4 26.6 8.9
1 7 -4 27.6 5.9
-1 -7 3 152.28 14
-1 -7 3 138.89 15.5
1 7 -3 160.88 17.2
1 7 -3 164.88 13.9
-1 -7 2 454.75 35.4
1 7 -2 444.86 32.1
1 7 -2 471.15 36.4
1 7 -2 437.26 35.2
-1 -7 1 14.2 3.8
-1 -7 1 13.2 6.1
1 7 -1 5.7 4.3
1 7 -1 15.5 4.6
1 7 -1 13.3 5.5
1 7 -1 19.4 2.6
-1 -7 0 83.09 15.3
-1 -7 0 145.99 12.2
1 7 0 131.49 15.4
1 7 0 135.99 12.5
1 7 0 154.08 15.9
1 7 0 150.88 10.7
-1 -7 -1 14.5 7.8
-1 -7 -1 11.7 3.7
1 7 1 11.7 4
1 7 1 6.2 4.4
1 7 1 12.6 3.4
1 7 1 11.5 5.6
-1 -7 -2 525.05 32.5
-1 -7 -2 373.56 34.9
1 7 2 487.25 32.3
1 7 2 454.85 36
1 7 2 468.85 32.4
1 7 2 455.65 35.6
-1 -7 -3 133.49 12.9
-1 -7 -3 174.38 18
1 7 3 153.28 13.9
1 7 3 150.48 13.3
1 7 3 146.19 15.9
1 7 3 162.48 16.6
-1 -7 -4 40.1 10
-1 -7 -4 27.2 5.8
1 7 4 36.7 7.3
1 7 4 28.7 7.3
1 7 4 39.6 6
1 7 4 31.4 7.7
-1 -7 -5 31.5 6.1
1 7 5 42.1 8.3
1 7 5 46.6 5.5
1 7 5 49.5 8.9
1 7 5 37.8 7.5
-1 -7 -6 39.3 8
1 7 6 50.09 9.2
1 7 7 95.69 14.4
1 7 8 6.1 5.7
1 7 9 -1 6.4
1 7 10 21.9 8.8
1 7 11 8 7.4
-1 -6 11 14.3 7.2
-1 -6 10 89.09 15.5
-1 -6 9 7.7 6.6
-1 -6 8 260.37 24.6
-1 -6 7 304.17 26.7
-1 -6 6 5.8 4.8
-1 -6 5 190.48 15.3
-1 -6 5 213.88 18.4
-1 -6 5 199.18 18.3
1 6 -5 208.68 16.1
-1 -6 4 37.1 7.3
-1 -6 4 30.8 6.7
-1 -6 4 35.1 6.7
1 6 -4 48.8 6.6
-1 -6 3 526.75 39.5
-1 -6 3 565.24 38.2
-1 -6 3 506.55 37.6
1 6 -3 602.44 37.6
1 6 -3 533.65 40.4
-1 -6 2 129.69 14.2
1 6 -2 141.99 12.3
1 6 -2 143.89 15
-1 -6 1 69.29 10.9
-1 -6 1 83.09 8.7
1 6 -1 100.69 13.4
1 6 -1 78.09 9
1 6 -1 85.99 6.3
-1 -6 0 260.87 18.2
-1 -6 0 182.28 21.3
1 6 0 244.68 16.8
1 6 0 250.27 21.2
1 6 0 264.47 18.7
1 6 0 246.98 21.5
-1 -6 -1 80.59 9.1
-1 -6 -1 91.99 14.1
1 6 1 71.59 9
1 6 1 90.39 8.1
1 6 1 98.29 13.8
1 6 1 101.49 11.9
-1 -6 -2 122.19 14.3
-1 -6 -2 125.99 14.5
-1 -6 -2 140.19 11.5
1 6 2 141.39 14.5
1 6 2 118.99 11.2
1 6 2 124.79 13.8
1 6 2 134.89 11.5
-1 -6 -3 593.34 38.7
1 6 3 547.95 41.5
1 6 3 546.65 41.2
1 6 3 602.84 38.8
1 6 3 570.74 39.6
-1 -6 -4 36.5 5.5
-1 -6 -4 41 9.1
1 6 4 25.7 6
1 6 4 28.6 4.5
1 6 4 28.3 6.2
1 6 4 22.7 6.6
-1 -6 -5 197.18 16
1 6 5 216.78 17
1 6 5 202.18 13.7
1 6 5 200.78 18.2
1 6 5 200.38 17.1
-1 -6 -6 5.1 4.1
1 6 6 12.5 5.4
1 6 7 270.87 24.3
1 6 8 329.57 28.7
1 6 9 4.2 5.5
1 6 10 109.09 17.5
1 6 11 25.3 9.5
-1 -5 12 7.3 5.8
-1 -5 11 7.2 6.6
-1 -5 10 56.39 11.3
-1 -5 9 98.79 15.6
-1 -5 8 480.45 38
-1 -5 7 65.49 11.7
-1 -5 6 181.08 17.3
-1 -5 5 174.88 12.4
-1 -5 5 179.98 16.3
1 5 -5 166.48 13.2
1 5 -5 173.58 13.7
-1 -5 4 570.14 39.5
-1 -5 4 581.54 38.2
-1 -5 4 538.25 39.1
1 5 -4 546.85 37.3
1 5 -4 550.24 37.4
-1 -5 3 120.69 12.1
-1 -5 3 115.69 11.3
-1 -5 3 124.09 11.4
1 5 -3 129.59 13.3
1 5 -3 116.69 10.7
1 5 -3 141.29 10.8
-1 -5 2 894.61 60.59
1 5 -2 830.72 57.99
1 5 -2 938.61 61.09
1 5 -2 919.81 58.89
-1 -5 1 422.56 30.1
-1 -5 1 487.45 33.5
1 5 -1 440.06 33.6
1 5 -1 519.15 34
1 5 -1 430.66 30.7
1 5 -1 403.26 31.3
-1 -5 0 510.45 34.1
1 5 0 600.84 37.5
1 5 0 507.15 33
1 5 0 508.35 34.5
1 5 0 433.46 36.4
-1 -5 -1 425.96 32.7
-1 -5 -1 469.45 33.9
-1 -5 -1 436.76 29.8
1 5 1 418.66 29.5
1 5 1 429.36 30.2
1 5 1 471.95 32.9
-1 -5 -2 930.91 65.09
-1 -5 -2 971.5 62.09
-1 -5 -2 1003.9 65.29
1 5 2 945.01 62.49
1 5 2 990.9 62.29
1 5 2 949.4 64.79
1 5 2 953.5 64.89
-1 -5 -3 120.89 12.9
-1 -5 -3 123.29 10.4
1 5 3 118.19 12.2
1 5 3 126.39 12.6
1 5 3 108.79 11.1
1 5 3 129.39 10.2
-1 -5 -4 614.44 39.5
1 5 4 585.14 41.2
1 5 4 594.74 41.4
1 5 4 585.74 38.3
1 5 4 594.44 40.9
-1 -5 -5 180.98 13.5
1 5 5 151.58 15.3
-1 -5 -6 210.18 17
1 5 6 190.68 18.2
1 5 7 56.69 10
1 5 8 485.95 38.2
1 5 9 130.19 17.7
1 5 10 61.09 12.6
1 5 11 11.6 7.6
1 5 12 36.1 11.5
-1 -4 12 11.4 6.4
-1 -4 11 7.2 5.6
-1 -4 10 4.2 6.5
-1 -4 9 91.69 14.9
-1 -4 8 119.59 16.6
-1 -4 7 109.09 10.2
-1 -4 7 86.19 13.1
-1 -4 6 159.28 15.2
-1 -4 6 146.29 12.2
-1 -4 5 38.3 7.2
-1 -4 5 45.6 5.3
1 4 -5 40 5
-1 -4 4 59.69 5.4
-1 -4 4 64.99 9
1 4 -4 68.69 6.3
1 4 -4 64.19 6.9
-1 -4 3 604.54 40.2
-1 -4 3 585.74 39.9
-1 -4 3 606.64 39.9
1 4 -3 592.44 38.8
1 4 -3 568.74 40.7
1 4 -3 593.04 39
-1 -4 2 207.18 16.7
1 4 -2 201.78 15.5
1 4 -2 212.68 17.2
1 4 -2 202.38 15.1
-1 -4 1 1859.51 113.69
-1 -4 1 1754.02 111.09
1 4 -1 1781.92 112.29
1 4 -1 1691.33 111.39
-1 -4 0 16.6 3.2
-1 -4 0 7.2 3.5
1 4 0 16.2 4.7
1 4 0 17.2 2.6
1 4 0 17.6 3.5
1 4 0 21.1 5.3
1 4 0 23.2 4.8
-1 -4 -1 1879.81 120.59
-1 -4 -1 1770.42 117.79
-1 -4 -1 2182.48 121.39
1 4 1 1751.82 117.99
1 4 1 1962.2 120.29
1 4 1 1834.92 120.39
1 4 1 1792.82 117.69
-1 -4 -2 216.58 15
-1 -4 -2 200.68 17.1
-1 -4 -2 195.98 17.2
1 4 2 189.48 16.6
1 4 2 216.28 15
1 4 2 221.08 17.2
1 4 2 199.58 15.4
-1 -4 -3 622.54 40.4
-1 -4 -3 616.84 43.1
1 4 3 611.64 42
1 4 3 640.84 40.2
1 4 3 622.04 41.9
1 4 3 611.74 42.2
-1 -4 -4 61.89 6.6
1 4 4 64.89 7.2
1 4 4 61.79 8.5
1 4 4 69.59 6.8
-1 -4 -5 53.99 6
1 4 5 39.9 7.4
-1 -4 -6 156.88 12.9
1 4 6 139.09 15.9
1 4 7 96.29 13.1
1 4 8 92.89 13.6
1 4 9 107.89 16.4
1 4 10 9 7.1
1 4 11 46.2 11.8
1 4 12 9.1 7.2
-1 -3 12 8.5 5.9
-1 -3 11 4 5.3
-1 -3 10 5.1 6.1
-1 -3 9 195.38 17.4
-1 -3 9 176.68 20.9
-1 -3 8 50.49 9.7
-1 -3 8 37 7.2
-1 -3 7 37.3 6.5
-1 -3 7 36.3 8.3
-1 -3 6 7.2 4
-1 -3 6 18 4
-1 -3 5 159.28 12
-1 -3 5 153.68 14.1
1 3 -5 143.29 10.4
-1 -3 4 44.9 4.9
-1 -3 4 38 6.5
1 3 -4 38.9 4.2
-1 -3 3 189.58 14.4
-1 -3 3 177.78 12.2
-1 -3 3 180.78 12.6
-1 -3 3 184.08 14.3
1 3 -3 162.58 13.8
1 3 -3 168.18 12.4
-1 -3 2 924.91 56.99
-1 -3 2 900.01 57.39
-1 -3 2 867.61 56.69
1 3 -2 930.41 56.19
1 3 -2 801.72 57.29
-1 -3 1 23.4 4.7
-1 -3 1 25.9 3.2
1 3 -1 17.6 3.9
1 3 -1 20.2 3.3
1 3 -1 19 3.5
-1 -3 0 277.47 19.5
-1 -3 0 282.37 21.7
-1 -3 0 239.38 21.6
1 3 0 345.57 22
1 3 0 304.27 20.7
1 3 0 311.87 20
-1 -3 -1 21.2 3.1
-1 -3 -1 20.3 4.3
-1 -3 -1 15.5 4
1 3 1 20.9 3.2
1 3 1 22.4 3.3
1 3 1 12 3
1 3 1 29.9 5.3
-1 -3 -2 980.8 59.29
-1 -3 -2 913.91 61.29
-1 -3 -2 882.61 60.79
1 3 2 957 60.99
1 3 2 909.71 60.69
1 3 2 975.9 59.19
1 3 2 935.61 60.09
-1 -3 -3 196.78 15.6
-1 -3 -3 189.68 16.8
-1 -3 -3 196.48 13.7
1 3 3 207.18 12.9
1 3 3 197.68 14.7
1 3 3 179.78 14.3
1 3 3 185.68 15.1
1 3 3 194.08 12.8
-1 -3 -4 46 4.7
1 3 4 30.9 5.6
-1 -3 -5 150.18 10.7
1 3 5 137.69 13.4
-1 -3 -6 14.5 3.4
1 3 6 21.4 5.4
1 3 7 32.9 7.3
1 3 7 29.4 5.4
1 3 8 50.29 9.6
1 3 9 202.88 22.7
1 3 10 19.7 8.3
1 3 11 15.6 6.7
1 3 12 35.9 10.8
-1 -2 12 4 5.6
-1 -2 11 13.7 7.2
-1 -2 10 21.1 7.5
-1 -2 10 47.4 10.9
-1 -2 9 120.09 15.1
-1 -2 9 146.19 18
-1 -2 8 65.19 9.3
-1 -2 8 61.09 10.8
-1 -2 8 64.29 9.6
-1 -2 7 56.19 8.2
-1 -2 7 59.69 9.9
-1 -2 7 63.99 8.7
-1 -2 6 14.1 4.7
-1 -2 6 10.1 3.6
-1 -2 6 10 3.6
-1 -2 5 96.59 9.2
-1 -2 5 95.29 8.8
-1 -2 5 101.99 11.4
-1 -2 4 14.8 3.5
-1 -2 4 24.9 5
-1 -2 4 23.6 3.6
-1 -2 3 584.54 39.3
-1 -2 3 623.24 38.6
-1 -2 3 658.93 40.4
1 2 -3 587.74 38.7
1 2 -3 576.04 37.6
-1 -2 2 1293.07 81.59
-1 -2 2 1357.36 82.49
1 2 -2 1312.97 82.39
1 2 -2 1259.87 81.09
-1 -2 1 160.78 12.1
-1 -2 1 160.78 10.8
1 2 -1 144.49 11.9
1 2 -1 171.28 11.1
-1 -2 0 1083.99 79.19
-1 -2 0 1113.49 77.99
1 2 0 1449.06 79.69
1 2 0 1371.96 78.39
-1 -2 -1 175.18 13.2
-1 -2 -1 175.78 11.8
1 2 1 160.18 11.8
1 2 1 183.38 13
1 2 1 173.18 12.2
1 2 1 178.98 13.2
1 2 1 167.28 12.7
-1 -2 -2 1461.55 88.69
-1 -2 -2 1403.26 89.99
-1 -2 -2 1546.95 89.89
1 2 2 1404.86 88.39
1 2 2 1388.36 89.69
1 2 2 1328.27 89.29
1 2 2 1429.76 89.69
-1 -2 -3 556.44 38.7
-1 -2 -3 619.54 37.5
-1 -2 -3 603.14 39
1 2 3 587.94 39.4
-1 -2 -4 30.9 2.8
1 2 4 35.9 5.1
1 2 4 20.5 4.8
1 2 5 125.19 10.9
1 2 5 103.49 11.8
1 2 6 10 4.6
1 2 6 10.5 3.3
1 2 6 13.4 4.1
1 2 7 44.3 8.5
1 2 7 67.19 7.7
1 2 7 38.3 7.8
1 2 8 63.39 10.5
1 2 8 68.09 11.3
1 2 9 137.19 16.4
1 2 9 107.39 16
1 2 10 43 10.1
1 2 10 39.9 10
1 2 11 18.5 8.2
1 2 11 26.8 9
1 2 12 7.3 6.5
-1 -1 12 4.6 6.3
-1 -1 11 36 10.3
-1 -1 11 53.99 11.2
-1 -1 10 11.1 6.3
-1 -1 10 6.6 5.7
-1 -1 9 218.68 20.7
-1 -1 9 198.38 19.1
-1 -1 8 -3.5 2.7
-1 -1 8 3.1 3.3
-1 -1 8 5.1 5
-1 -1 7 250.47 20
-1 -1 7 275.77 22.4
-1 -1 7 258.37 20.9
-1 -1 6 22.6 5.8
-1 -1 6 26.1 5.2
-1 -1 6 26.8 5
-1 -1 5 223.48 16.5
-1 -1 5 202.58 17.1
-1 -1 5 202.88 15.8
-1 -1 4 2.9 2.5
-1 -1 4 2.2 2.1
-1 -1 4 1.4 1.9
-1 -1 3 208.28 15.1
-1 -1 3 223.28 15.9
-1 -1 3 208.18 14.9
-1 -1 2 638.64 41.1
-1 -1 2 664.93 41
-1 -1 2 606.14 40.6
-1 -1 1 249.88 15.8
-1 -1 1 244.18 15.6
1 1 -1 213.68 15.7
1 1 -1 247.48 15.2
-1 -1 0 6 1.2
1 1 0 1.2 1.2
1 1 0 9.7 1.4
-1 -1 -1 276.47 17.8
-1 -1 -1 271.77 18.6
1 1 1 294.77 18.4
1 1 1 295.67 18.6
1 1 1 282.77 17.8
1 1 1 236.58 18.6
-1 -1 -2 699.43 39.5
-1 -1 -2 610.54 38.7
-1 -1 -2 598.64 39.4
1 1 2 584.44 39.8
1 1 2 612.54 40.2
1 1 3 225.48 17.1
1 1 3 243.68 16.9
1 1 4 4.1 2.5
1 1 4 7.3 2.2
1 1 4 4.4 2.7
1 1 5 232.68 16.2
1 1 5 211.08 17.6
1 1 5 224.98 17.8
1 1 6 31.2 6.3
1 1 6 29.1 6.1
1 1 6 28 4.6
1 1 7 292.37 22.2
1 1 7 248.68 19.1
1 1 7 244.48 21.5
1 1 8 3.9 4.5
1 1 8 -0.8 3.3
1 1 9 210.88 20.9
1 1 9 228.08 21.1
1 1 10 36.7 9.6
1 1 10 11.6 6.7
1 1 11 47.7 11
1 1 11 50.19 11.2
1 1 12 -1.7 6.3
1 1 12 2.3 5.7
-1 0 12 2 6.8
-1 0 12 1.4 5.8
-1 0 11 19.8 7.4
-1 0 11 10.5 7
-1 0 10 -3.7 4.4
-1 0 10 -2.1 4.3
-1 0 9 0.4 4.2
-1 0 9 1.6 4.4
-1 0 8 -0.1 2.9
-1 0 8 5.1 4.1
-1 0 8 -2.7 3.1
-1 0 7 -3 2.6
-1 0 7 -2.8 2.4
-1 0 7 -0.8 2.6
1 0 -7 0.1 3.8
-1 0 6 -0.3 2.2
-1 0 6 0.6 2.9
-1 0 6 -2 2.2
1 0 -6 -0.2 2.3
-1 0 5 5.2 2.8
-1 0 5 -1 2.3
-1 0 5 1.5 2.1
1 0 -5 1.4 2
-1 0 4 -0.4 1.8
-1 0 4 -0.7 1.6
-1 0 4 -1.7 1.5
-1 0 3 -0.7 1.8
-1 0 3 0.9 1.7
-1 0 3 1.6 1.9
-1 0 2 -1.9 1.1
-1 0 2 -0.2 1.3
-1 0 2 -1.5 1
-1 0 1 -1.1 0.8
-1 0 1 -0.8 0.7
-1 0 0 -0.5 0.3
-1 0 0 -0.3 0.2
1 0 0 -0.4 0.2
-1 0 -1 -1.5 0.3
-1 0 -1 -1.2 0.3
1 0 1 -0.3 0.8
1 0 2 0.2 1.2
1 0 2 -2 1.1
1 0 2 0.9 0.9
1 0 3 -1.7 1.9
1 0 3 -0.4 1.6
1 0 3 1.1 1.4
1 0 4 -0.8 1.5
1 0 4 0.7 2.3
1 0 4 -1.5 1.4
1 0 5 -3.3 1.9
1 0 5 4.4 3
1 0 5 -1 1.7
-1 0 -6 -0.3 2.1
1 0 6 2.6 3
1 0 6 0.5 2.9
1 0 6 1.6 2.2
1 0 7 -2 2.5
1 0 7 -0.3 3.1
1 0 7 -0.6 2.3
1 0 8 -3.2 3.7
1 0 8 -1 3.6
1 0 9 6.2 4.8
1 0 9 2.9 4.2
1 0 10 1.2 4.6
1 0 10 3.8 5.2
1 0 11 22.5 8.6
1 0 11 25.4 8.8
1 0 12 -2.5 6.2
1 0 12 -2.3 4.9
-1 1 12 3.7 6.3
-1 1 12 4.6 5.4
-1 1 11 36.2 10.2
-1 1 11 53.39 11.3
-1 1 10 11.4 6.8
-1 1 10 14.3 6.1
-1 1 9 177.18 20.9
-1 1 9 254.47 21.7
-1 1 8 6.2 4.5
-1 1 8 2.6 3.7
-1 1 8 2.4 4.3
-1 1 7 248.98 20.5
-1 1 7 253.97 19
-1 1 7 237.08 20.1
1 -1 -7 222.38 19.2
-1 1 6 21.5 4.7
-1 1 6 33.2 6.4
-1 1 6 25.9 5.5
1 -1 -6 29.2 6
-1 1 5 195.58 16.3
-1 1 5 209.78 16.4
-1 1 5 219.28 15.7
1 -1 -5 189.88 16.3
-1 1 4 2.8 2.4
-1 1 4 3.4 2.2
-1 1 4 2.7 2.6
-1 1 3 207.98 15.9
-1 1 3 226.68 15.7
-1 1 2 635.24 39.2
-1 1 2 579.74 38.5
-1 1 1 266.47 16.4
-1 1 1 250.67 16.8
-1 1 1 285.67 17.4
-1 1 1 270.87 17
1 -1 -1 235.68 17
1 -1 -1 287.07 16.5
1 -1 -1 224.98 17
-1 1 0 10.1 1.5
-1 1 0 6.2 1.7
-1 1 -1 303.47 21.5
-1 1 -1 371.96 21
1 -1 1 336.57 21.4
1 -1 1 299.37 21.4
-1 1 -2 635.14 40.9
-1 1 -2 693.43 41.6
1 -1 2 645.14 41.8
1 -1 3 206.58 15.9
1 -1 3 212.28 15
1 -1 4 4.7 2.4
1 -1 4 3.3 2.6
1 -1 4 2.5 2
1 -1 5 206.38 15.3
1 -1 5 205.18 17.3
1 -1 5 214.58 16.4
1 -1 6 21.1 5.7
1 -1 6 28.7 4.7
1 -1 6 25.4 5.4
1 -1 7 253.77 22
1 -1 7 272.77 21.2
1 -1 7 252.97 19.3
1 -1 8 4.5 4
1 -1 8 -0.6 3.8
1 -1 9 206.68 20
1 -1 9 236.28 21.5
1 -1 10 10.2 5.8
1 -1 10 13.3 7
1 -1 11 40 11
1 -1 11 49.6 11
1 -1 12 -2.6 5.8
1 -1 12 0.2 5.6
-1 2 12 1.3 6.9
-1 2 12 3.1 6.4
-1 2 11 38.3 10.5
-1 2 11 19.5 7.7
-1 2 10 36.7 9.6
-1 2 10 39.7 9.5
-1 2 9 124.99 16.2
-1 2 9 138.39 17.4
-1 2 8 58.19 8.9
-1 2 8 72.29 10.8
-1 2 8 83.99 12.3
-1 2 7 62.99 10
-1 2 7 53.69 8.8
-1 2 7 68.59 8.8
1 -2 -7 63.29 9.9
-1 2 6 12.1 4
-1 2 6 13.1 4.6
-1 2 6 4.5 3.1
-1 2 5 113.99 10.5
-1 2 5 119.39 11.5
-1 2 4 37.5 5
-1 2 4 23.5 4.8
-1 2 3 630.04 40.2
-1 2 3 625.84 41.3
1 -2 -3 604.24 40.1
1 -2 -3 648.34 39
1 -2 -3 604.14 40.8
-1 2 2 1412.36 85.19
-1 2 2 1369.56 86.19
-1 2 2 1387.96 86.29
-1 2 2 1402.46 86.89
1 -2 -2 1420.86 85.59
1 -2 -2 1416.46 86.89
1 -2 -2 1231.48 86.49
-1 2 1 154.28 12.5
-1 2 1 177.18 12.8
-1 2 1 172.38 11.9
-1 2 1 177.98 11.7
1 -2 -1 160.78 12.7
1 -2 -1 176.48 11.6
-1 2 0 1027.4 67.09
1 -2 0 1113.19 66.99
-1 2 -1 228.98 14.2
-1 2 -1 220.28 15.3
1 -2 1 206.68 15.1
1 -2 1 177.08 14.1
-1 2 -2 1325.47 83.49
-1 2 -2 1418.36 84.59
1 -2 2 1371.36 84.79
1 -2 2 1246.48 83.99
-1 2 -3 574.64 37.5
-1 2 -3 578.44 38.6
1 -2 3 613.24 38.3
1 -2 3 624.54 40
-1 2 -4 38.4 3.9
1 -2 4 25.3 4.2
1 -2 4 24.2 5.2
1 -2 5 128.59 12.4
1 -2 5 124.19 10.8
1 -2 6 11.5 3.8
1 -2 6 11.2 4.6
1 -2 7 51.89 8.2
1 -2 7 59.99 9.9
1 -2 8 72.79 10.6
1 -2 8 69.79 12
1 -2 9 105.99 15.1
1 -2 9 117.29 14.5
1 -2 10 44.8 9.6
1 -2 10 45.3 10.2
1 -2 11 26.7 8.7
1 -2 12 -2.9 4.9
-1 3 12 24.8 9.5
-1 3 11 1.1 5
-1 3 10 11.4 6.7
-1 3 10 12.4 6.7
-1 3 9 147.29 18.6
-1 3 9 191.58 19.8
-1 3 8 37.1 8.2
-1 3 8 27.7 7
-1 3 8 40.3 7.2
1 -3 -8 37.9 8.9
-1 3 7 46.3 8.8
-1 3 7 26.3 6.4
-1 3 6 23.3 6
-1 3 6 20.4 4.9
-1 3 5 147.19 12.7
-1 3 5 146.79 14
1 -3 -5 163.78 11
-1 3 4 37.8 6.5
1 -3 -4 43.4 4.4
-1 3 3 202.28 14.1
-1 3 3 200.58 15.2
-1 3 3 186.28 13.8
1 -3 -3 190.58 15.2
1 -3 -3 192.68 13.4
-1 3 2 894.31 59.39
-1 3 2 954.9 57.99
-1 3 2 890.81 59.49
-1 3 2 928.81 59.09
1 -3 -2 968.1 60.19
1 -3 -2 829.02 59.49
1 -3 -2 969.2 58.09
-1 3 1 21.3 4.2
-1 3 1 26.2 3.7
-1 3 1 23.8 3.5
-1 3 1 25.9 5.1
1 -3 -1 30.5 5.6
1 -3 -1 22.5 3.2
-1 3 0 289.27 18
-1 3 0 281.17 18.9
1 -3 0 264.57 20.1
1 -3 0 258.17 18.4
-1 3 -1 18.7 4.3
-1 3 -1 24.4 3.4
1 -3 1 28.6 5.1
1 -3 1 23 3.3
-1 3 -2 1089.69 62.69
-1 3 -2 901.61 60.79
1 -3 2 865.11 61.89
1 -3 2 997.6 61.99
-1 3 -3 188.18 12.9
-1 3 -3 168.68 14.3
1 -3 3 179.58 13.4
1 -3 3 196.38 14.9
1 -3 3 177.98 12.5
-1 3 -4 39.9 4.4
1 -3 4 46.8 7.1
1 -3 4 35.5 4.8
-1 3 -5 145.69 10.6
1 -3 5 160.78 14.2
1 -3 5 138.09 11.7
1 -3 6 17.6 5.6
1 -3 6 20.4 4.3
1 -3 7 35.4 6.5
1 -3 7 27.2 7.7
1 -3 8 35.6 7.3
1 -3 8 44.4 9.7
1 -3 9 197.08 23.1
1 -3 9 210.78 18.9
1 -3 10 8 6
1 -3 11 14.1 7.2
1 -3 12 29.5 10
-1 4 12 11.1 7.9
-1 4 11 46.8 11.2
-1 4 10 32.1 9.2
-1 4 9 112.49 16.2
-1 4 8 106.29 14.6
-1 4 7 122.69 15.2
-1 4 6 136.19 15.4
-1 4 5 39.5 7.3
1 -4 -5 51.19 5.4
-1 4 4 64.89 8.8
1 -4 -4 65.59 6.6
-1 4 3 625.14 42.5
-1 4 3 594.34 42.3
-1 4 3 613.64 42.5
-1 4 3 632.94 40.5
1 -4 -3 653.53 41.1
1 -4 -3 668.63 43.8
-1 4 2 192.98 16.5
-1 4 2 205.28 15.5
-1 4 2 212.28 16.9
-1 4 2 205.38 14.9
1 -4 -2 222.88 17.7
1 -4 -2 191.28 14.7
1 -4 -2 207.78 17.2
-1 4 1 1832.72 117.79
-1 4 1 2038.5 118.09
-1 4 1 1752.62 115.59
-1 4 1 1792.72 115.19
1 -4 -1 1776.92 115.29
-1 4 0 16.5 3.4
-1 4 0 10.1 3.6
-1 4 0 18.1 2.6
1 -4 0 15.7 4.6
1 -4 0 22 3.5
-1 4 -1 2277.47 130.29
-1 4 -1 1807.02 127.29
1 -4 1 2013.7 129.59
-1 4 -2 243.68 17.7
-1 4 -2 187.78 15
1 -4 2 198.28 15.7
1 -4 2 197.28 16.7
-1 4 -3 592.44 39.5
-1 4 -3 581.94 41.4
1 -4 3 600.64 39.8
1 -4 3 629.64 41.4
1 -4 3 610.54 40.9
1 -4 3 614.24 38.4
-1 4 -4 56.79 6.4
1 -4 4 57.99 5.9
1 -4 4 55.49 5.5
1 -4 4 87.59 9.8
-1 4 -5 40.1 5.2
1 -4 5 47.8 5.7
1 -4 5 35.3 7
1 -4 6 99.39 13.4
1 -4 6 140.49 11.2
1 -4 7 76.79 12.2
1 -4 7 106.09 11.1
1 -4 8 86.19 12.3
1 -4 8 58.39 11.3
1 -4 9 100.49 15.3
1 -4 10 15.6 7.5
1 -4 11 19.9 7.4
1 -4 12 9.9 6.6
-1 5 12 19.3 9.3
-1 5 11 14.8 7.1
-1 5 10 88.39 15.4
-1 5 9 144.49 18.8
-1 5 8 533.55 41
-1 5 7 47.7 9.3
-1 5 6 194.78 18.1
-1 5 5 184.78 17.1
1 -5 -5 201.68 14.9
-1 5 4 580.94 40
-1 5 4 569.54 40.7
-1 5 4 629.04 40.4
-1 5 4 576.74 37.5
1 -5 -4 564.74 38.7
-1 5 3 127.59 12.7
-1 5 3 147.39 12.2
-1 5 3 122.79 12.6
-1 5 3 119.69 10.4
1 -5 -3 139.99 14.1
1 -5 -3 141.09 11
-1 5 2 985.8 64.59
-1 5 2 1016 61.99
-1 5 2 951 64.29
-1 5 2 936.51 61.99
1 -5 -2 949.9 61.69
1 -5 -2 910.51 64.19
-1 5 1 445.06 32.9
-1 5 1 442.26 30.3
-1 5 1 461.75 32.9
-1 5 1 425.66 29.4
1 -5 -1 461.05 32.6
1 -5 -1 412.36 29.7
-1 5 0 499.25 35.7
-1 5 0 529.25 34.3
-1 5 0 539.45 38.4
1 -5 0 555.04 35.5
-1 5 -1 503.45 35.6
-1 5 -1 453.05 32.7
1 -5 1 489.45 35.3
-1 5 -2 890.31 59.09
-1 5 -2 982.8 62.09
1 -5 2 943.61 59.69
1 -5 2 836.82 61.09
-1 5 -3 136.39 13.2
-1 5 -3 114.29 10.3
1 -5 3 134.29 10.7
1 -5 3 98.49 11.5
1 -5 3 128.19 11.7
-1 5 -4 542.35 37.8
1 -5 4 575.44 39
1 -5 4 602.94 40.4
1 -5 4 549.05 36.4
1 -5 4 575.24 38.7
-1 5 -5 193.08 14
1 -5 5 154.18 15.7
1 -5 5 166.88 12.8
1 -5 6 204.48 14.8
1 -5 6 158.28 18.8
1 -5 7 52.19 10.1
1 -5 8 454.95 36.5
1 -5 9 115.99 17.1
1 -5 10 76.19 14.3
1 -5 11 11 6.7
1 -5 12 4.2 6
-1 6 11 15.4 8.4
-1 6 10 84.99 14.9
-1 6 9 -4.6 5.1
-1 6 8 360.16 30.6
-1 6 7 286.57 24.9
-1 6 6 10.1 4.7
-1 6 5 196.48 16.6
-1 6 5 218.98 16.6
-1 6 5 211.28 18.4
1 -6 -5 194.68 15.9
-1 6 4 37.8 4.9
-1 6 4 29.8 6.8
-1 6 4 36 7.1
-1 6 4 27.9 5.8
1 -6 -4 29.5 5
-1 6 3 560.54 41.3
-1 6 3 588.54 39.4
-1 6 3 562.14 38.2
-1 6 3 561.84 41.1
1 -6 -3 570.74 38.2
-1 6 2 119.99 11.4
-1 6 2 146.99 11.9
-1 6 2 134.79 14.5
-1 6 2 137.09 14.4
1 -6 -2 124.79 14.3
1 -6 -2 145.79 11.7
-1 6 1 55.99 9.7
-1 6 1 102.69 13.3
-1 6 1 89.49 7.7
-1 6 1 80.19 9.1
1 -6 -1 100.79 13.6
1 -6 -1 74.09 8.5
-1 6 0 252.07 16.5
-1 6 0 242.98 18.4
-1 6 0 185.98 20
-1 6 0 275.57 21.9
1 -6 0 242.58 17.8
1 -6 0 218.48 20.7
-1 6 -1 108.99 12.9
-1 6 -1 87.99 10
1 -6 1 82.19 11.7
-1 6 -2 132.59 14.6
-1 6 -2 132.39 11.7
1 -6 2 137.09 14.2
1 -6 2 120.49 11.4
-1 6 -3 503.55 39.7
-1 6 -3 550.14 37.2
1 -6 3 561.44 39.7
1 -6 3 559.74 38.3
-1 6 -4 36.3 5.7
-1 6 -4 25.3 9.9
1 -6 4 42.7 6.6
1 -6 4 32.4 3.6
1 -6 4 28.1 6.5
1 -6 4 33.5 6.5
-1 6 -5 180.38 15.3
1 -6 5 206.28 15.7
1 -6 5 183.18 16.4
1 -6 5 175.98 17.5
1 -6 6 10.4 5.4
1 -6 7 284.17 25.5
1 -6 8 295.57 26.8
1 -6 9 14.1 7.9
1 -6 10 62.69 12.6
1 -6 11 18.9 7.6
-1 7 11 6.8 6.5
-1 7 10 19.1 8.9
-1 7 9 -3.9 4.6
-1 7 8 4.9 5.7
-1 7 7 102.39 14.9
-1 7 6 44.7 8.9
-1 7 5 35.3 7.8
-1 7 5 47.4 8.4
-1 7 5 48.8 8.2
-1 7 5 40.6 5
1 -7 -5 34.8 6.2
-1 7 4 34.8 7.7
-1 7 4 28.4 4.9
-1 7 4 22.4 6.5
-1 7 4 27.5 6.6
1 -7 -4 44.8 6.5
-1 7 3 163.18 14.1
-1 7 3 163.48 13.7
-1 7 3 151.88 16.1
-1 7 3 140.09 16
1 -7 -3 171.88 13.8
-1 7 2 507.85 33
-1 7 2 463.25 36.4
-1 7 2 461.15 36.5
-1 7 2 485.05 33.4
1 -7 -2 457.75 32.9
1 -7 -2 454.75 36.6
-1 7 1 10.6 5.1
-1 7 1 13 3.3
-1 7 1 11.9 5.1
-1 7 1 6.3 3.4
1 -7 -1 11.8 6.2
1 -7 -1 7.9 3.5
-1 7 0 133.09 15.3
-1 7 0 145.99 12.7
-1 7 0 89.09 14.8
-1 7 0 136.09 10.4
1 -7 0 157.38 18.4
1 -7 0 140.49 11.8
-1 7 -1 11.2 5.5
-1 7 -1 17.9 4.6
1 -7 1 8 5.1
-1 7 -2 459.45 38.2
-1 7 -2 482.95 35.1
1 -7 2 560.54 38.9
1 -7 2 494.45 35
-1 7 -3 164.08 17.4
-1 7 -3 156.68 13.5
1 -7 3 154.18 14.2
1 -7 3 132.09 15.2
-1 7 -4 26.6 5.7
-1 7 -4 37.5 9.4
1 -7 4 22.1 6.4
1 -7 4 29.4 7
1 -7 4 28.9 6
-1 7 -5 39.9 6.9
1 -7 5 45.4 7.6
1 -7 5 25.5 7.2
1 -7 5 30.3 6.9
1 -7 6 41.4 9.5
1 -7 7 70.49 12.2
1 -7 8 0.4 5.9
1 -7 9 0.7 5.8
1 -7 10 7.7 8
1 -7 11 -2.6 5.1
-1 8 11 14 8.2
-1 8 10 16 8.1
-1 8 9 33.1 9.5
-1 8 8 44.2 10
-1 8 7 6 5.2
-1 8 6 84.89 12.5
-1 8 6 89.99 10.8
-1 8 6 97.69 10.3
-1 8 5 5.2 4.3
-1 8 5 3.6 4
-1 8 5 5.4 4.1
-1 8 5 2.5 2.4
1 -8 -5 4.7 3.6
-1 8 4 85.29 13
-1 8 4 90.69 13.2
-1 8 4 117.89 11.7
-1 8 4 112.19 12.9
1 -8 -4 91.19 11.1
-1 8 3 68.89 8.7
-1 8 3 48.3 7.6
-1 8 3 32.3 7.1
-1 8 3 37.7 8.9
1 -8 -3 47.8 7.5
-1 8 2 7.1 3.5
-1 8 2 -0.8 2.3
-1 8 2 4.6 3.5
-1 8 2 3.7 4
1 -8 -2 2.2 6.8
1 -8 -2 0.1 2.5
-1 8 1 61.69 11.1
-1 8 1 57.09 7.1
-1 8 1 61.29 12
-1 8 1 58.39 8.7
1 -8 -1 62.19 8.3
1 -8 -1 47.6 11.6
-1 8 0 78.19 10.3
-1 8 0 99.19 8
-1 8 0 66.39 12.6
-1 8 0 105.39 16.3
1 -8 0 92.89 10.5
1 -8 0 78.89 15
-1 8 -1 68.09 11.7
-1 8 -1 38.9 9.3
-1 8 -1 64.39 8.8
1 -8 1 69.69 13.4
-1 8 -2 2.4 5.2
-1 8 -2 5.8 3.3
1 -8 2 2.5 3.8
1 -8 2 4.1 3.4
-1 8 -3 51.89 8.3
1 -8 3 36.6 7.7
1 -8 3 42.8 9.3
-1 8 -4 96.49 12.2
1 -8 4 128.19 15.1
1 -8 4 97.49 12.1
1 -8 4 115.99 13.9
-1 8 -5 4.4 3.8
1 -8 5 -1.6 2.9
1 -8 5 6.1 4.9
1 -8 6 94.39 14.2
1 -8 6 105.19 10.9
1 -8 7 13.8 7.2
1 -8 8 43.7 11.4
1 -8 9 27.1 10.3
1 -8 10 5.5 7.9
1 -8 11 6.7 8.3
-1 9 10 21.6 9.5
-1 9 9 41.5 11.4
-1 9 8 10.8 7.2
-1 9 7 117.49 16
-1 9 6 -1.3 4.6
-1 9 6 3.9 4.7
-1 9 6 5.3 4.4
-1 9 5 7.7 5.3
-1 9 5 16.8 6.8
-1 9 5 7.7 5.2
-1 9 5 12 3.8
1 -9 -5 12.7 4.6
-1 9 4 15.3 5.7
-1 9 4 38.2 6.7
-1 9 4 36.1 10
-1 9 4 25.7 7.9
1 -9 -4 30.9 6.8
-1 9 3 114.49 12.9
-1 9 3 97.99 11.7
-1 9 3 89.59 14.8
-1 9 3 76.49 13.1
1 -9 -3 119.99 12.8
-1 9 2 16.9 6.4
-1 9 2 22.6 5.6
-1 9 2 18.4 4.7
1 -9 -2 22.3 5.4
-1 9 1 75.49 8.3
-1 9 1 47 10.9
-1 9 1 64.59 10
1 -9 -1 62.49 9.2
-1 9 0 45.9 8.2
-1 9 0 68.39 7.2
-1 9 -1 82.19 11.3
-1 9 -2 14.6 5.1
1 -9 2 17.1 5.1
-1 9 -3 100.99 12.2
1 -9 3 61.99 13.3
1 -9 3 84.19 11.6
-1 9 -4 50.19 8.5
1 -9 4 29.7 8.2
1 -9 4 28.7 6.9
1 -9 4 26 8.2
-1 9 -5 1.4 4.2
1 -9 5 11.5 5.8
1 -9 5 11.4 6
1 -9 6 -1.9 4.7
1 -9 6 3.8 3.9
1 -9 7 82.59 14.6
1 -9 8 11.9 7.3
1 -9 9 40.7 12.2
1 -9 10 25.9 10.6
-1 10 9 10.7 6.7
-1 10 8 1.8 6.1
-1 10 7 66.39 12
-1 10 6 42 9.5
-1 10 6 42.5 9.5
-1 10 6 35.6 9
1 -10 -6 64.39 15
-1 10 5 21.6 5.3
-1 10 5 21.4 8.1
-1 10 5 23.6 8.1
-1 10 5 29 7.5
1 -10 -5 35.1 7.4
-1 10 4 60.79 9.2
-1 10 4 31.1 9
-1 10 4 63.09 9.7
1 -10 -4 41.1 8.1
-1 10 3 31.4 9.2
-1 10 3 38.3 7.3
-1 10 3 60.19 9.4
1 -10 -3 39.9 7.9
-1 10 2 76.79 10.4
-1 10 2 52.99 7.9
-1 10 2 35.1 10.5
1 -10 -2 48.3 8.3
-1 10 1 86.29 12.2
-1 10 1 82.59 9.3
1 -10 -1 74.59 10.7
-1 10 0 6.2 4.3
-1 10 -1 92.59 12.5
-1 10 -2 60.39 9.9
1 -10 2 60.69 9.5
-1 10 -3 44.3 8.5
1 -10 3 38.2 8.2
-1 10 -4 59.59 10.2
1 -10 4 60.19 11.5
-1 10 -5 27.2 7.4
1 -10 5 26 8.7
1 -10 5 29.4 8.7
-1 10 -6 40.4 11.1
1 -10 6 59.09 12.4
1 -10 6 45.5 9.3
1 -10 7 44.4 11.9
1 -10 8 11.6 8.4
1 -10 9 21.6 9.9
1 -10 10 -2.2 8.6
-1 11 9 -0.2 6.2
-1 11 8 8.2 7.2
-1 11 7 2.9 6.1
-1 11 6 12.5 6.5
-1 11 6 17.2 7.3
-1 11 6 0.4 5.2
1 -11 -6 7.4 7.2
-1 11 5 89.09 15.6
-1 11 5 104.99 14.3
-1 11 5 94.29 11.7
1 -11 -5 78.49 12.1
-1 11 4 53.29 9.1
-1 11 4 27.2 9.2
-1 11 4 32.6 7.4
1 -11 -4 36.2 8.1
-1 11 3 134.89 15.8
-1 11 3 140.39 14.8
1 -11 -3 118.59 14.8
-1 11 2 70.19 9.3
-1 11 2 68.99 10.5
1 -11 -2 50.29 9.5
-1 11 1 62.69 10.6
1 -11 -1 63.79 9.9
-1 11 0 -2 3.5
-1 11 -1 64.69 10.9
1 -11 1 71.09 10.3
-1 11 -2 45.9 9.3
1 -11 2 64.09 10.5
-1 11 -3 124.39 16.1
1 -11 3 128.49 16
-1 11 -4 47.8 10.1
1 -11 4 39.4 9.9
-1 11 -5 82.69 13.3
1 -11 5 126.99 17.5
-1 11 -6 6.8 6.6
1 -11 6 9.7 7.2
1 -11 6 8.6 5.6
1 -11 7 6.6 6.9
1 -11 9 14 10.5
-1 12 8 13.4 7.7
-1 12 7 8.6 6.2
-1 12 6 18.6 7.5
1 -12 -6 19.3 7.6
-1 12 5 42.7 9
-1 12 5 31.9 7.4
-1 12 5 21.5 9.1
1 -12 -5 29.4 7.6
-1 12 4 15.7 6.1
-1 12 4 20.5 6.8
1 -12 -4 22.6 7.2
-1 12 3 28 7.5
-1 12 3 31.9 7
1 -12 -3 29.4 7.6
-1 12 2 5.7 4.5
1 -12 -2 6.3 5.2
-1 12 1 34 8.6
-1 12 0 1.2 4.3
-1 12 -1 48 9.7
1 -12 1 21.8 6.5
-1 12 -2 13.5 6.2
1 -12 2 11.2 6
-1 12 -3 26.5 8.3
1 -12 3 36 9.2
-1 12 -4 18.7 7.3
1 -12 4 19 8.2
-1 12 -5 18.1 7.4
1 -12 5 23.4 8.6
-1 12 -6 14.6 7.7
1 -12 6 20.2 8.9
1 -12 7 1 6.8
1 -12 8 -3.7 8.1
-1 13 7 12.5 7.6
-1 13 6 32.2 8.9
1 -13 -6 18.7 8.1
-1 13 5 17.5 7
-1 13 5 17.8 9.1
1 -13 -5 14.1 6.7
-1 13 4 21.3 7.2
1 -13 -4 13.3 6.6
-1 13 3 50.19 10.3
1 -13 -3 34.2 8.7
-1 13 2 18.1 7
-1 13 1 50.49 10.8
-1 13 0 13.3 7
-1 13 -1 79.89 13.9
-1 13 -2 8.5 5.7
1 -13 2 7.6 6.3
-1 13 -3 37 9.2
1 -13 3 34.7 9.8
-1 13 -4 30.2 9.2
1 -13 4 23.6 9.6
-1 13 -5 14.7 7.3
1 -13 5 17.3 8.4
-1 13 -6 25.2 9.5
1 -13 6 37.8 11.3
1 -13 7 12.6 10.4
-1 14 6 2.3 6.4
1 -14 -6 -0.3 6.6
1 -14 -5 6.8 6.9
-1 14 4 -3.7 4.4
1 -14 -4 5.1 5.8
-1 14 3 43.1 9.9
1 -14 -3 37.6 9.4
-1 14 2 28.1 8.4
-1 14 1 94.69 14.7
-1 14 0 21.1 8
-1 14 -1 93.19 14.9
-1 14 -2 23.7 8.6
-1 14 -3 43.2 10.7
1 -14 3 81.69 20.2
-1 14 -4 1.6 5.6
1 -14 4 2.2 7.9
-1 14 -5 6.6 7.1
1 -14 5 3.9 8.4
-1 14 -6 -0.1 6.6
1 -14 6 3.4 7.4
-1 15 4 36.3 9.6
-1 15 3 -3.3 5.4
-1 15 2 26.4 8.6
-1 15 1 4.5 6.3
-1 15 0 39.6 10.5
-1 15 -1 -5.7 5
-1 15 -2 29.9 10.4
-1 15 -3 -4.1 5.7
-1 15 -4 50.39 12.4
-2 -15 4 -1.6 6.2
2 15 -4 6.5 7.9
-2 -15 3 22.5 9.9
2 15 -3 31 10.2
2 15 -2 20.3 8.9
2 15 -1 40.5 10.4
2 15 0 4.5 6.6
2 15 1 59.79 12.6
-2 -15 -2 2.5 6.1
2 15 2 5.1 6.7
-2 -15 -3 19.2 8.6
2 15 3 34.7 9.9
-2 -15 -4 0.8 6.6
2 15 4 8.6 7.1
-2 -14 6 32.9 12.1
2 14 -6 12.2 11
-2 -14 5 -3.7 5.5
2 14 -5 3.8 6.8
-2 -14 4 5.4 8
2 14 -4 10.3 7.2
-2 -14 3 12.5 7.7
2 14 -3 3.8 6
-2 -14 2 33.6 9.3
2 14 -2 19.4 7.8
2 14 -1 11.3 6.6
2 14 0 2.9 5.6
-2 -14 -1 13.7 6.6
2 14 1 23.5 8.1
-2 -14 -2 38.2 9.5
2 14 2 29.4 8.8
-2 -14 -3 -1.1 4.5
2 14 3 0.6 5
-2 -14 -4 11.1 7.6
2 14 4 13.6 6.7
-2 -14 -5 0 5.9
-2 -14 -6 26 9.2
-2 -13 7 19.9 10.1
-2 -13 6 26.8 11.3
-2 -13 5 11.9 7.5
2 13 -5 7.8 7
-2 -13 4 43.7 10.1
2 13 -4 18.5 7.8
-2 -13 3 17.7 7.5
2 13 -3 8 6
-2 -13 2 4.5 4.7
2 13 -2 4.8 5.3
2 13 -1 21.6 7.8
2 13 0 19.1 7.7
-2 -13 -1 9.1 5.7
2 13 1 30 8.3
-2 -13 -2 -0.6 3.9
2 13 2 0.7 4.6
-2 -13 -3 16.4 6.7
2 13 3 10.7 5.9
-2 -13 -4 36.4 8.7
2 13 4 38.5 9
-2 -13 -5 19.5 7.7
2 13 5 -2.1 5.1
2 13 5 7.4 5.1
-2 -13 -6 16.1 7.5
2 13 6 15.9 7.9
2 13 7 20 9.6
-2 -12 8 24.8 11.4
-2 -12 7 2.7 8
-2 -12 6 36.5 11.7
-2 -12 5 -2.1 6.4
2 12 -5 7.5 6.1
-2 -12 4 57.79 11.4
-2 -12 4 53.59 16.2
2 12 -4 46.7 9.9
-2 -12 3 5.4 5.3
2 12 -3 8 6.1
2 12 -2 25.6 7.5
2 12 -1 46.7 9.9
-2 -12 0 9.2 5.5
2 12 0 21.2 7.3
-2 -12 -1 23 7
2 12 1 49.7 9.8
-2 -12 -2 46 9
2 12 2 45.8 9.7
-2 -12 -3 -3 3.4
2 12 3 2.8 4.4
-2 -12 -4 42.4 9.5
2 12 4 39.8 9.2
2 12 4 62.59 10.2
-2 -12 -5 17.3 6.2
2 12 5 8.1 6.6
2 12 5 11.6 5.3
2 12 5 4.3 5.6
-2 -12 -6 29.9 8.1
2 12 6 25.8 8.8
2 12 7 21.3 8.5
2 12 8 24.6 9.3
-2 -11 9 72.09 16.4
-2 -11 8 13.5 8.7
-2 -11 7 37 11.5
-2 -11 6 7.8 5.7
-2 -11 6 11.3 7.6
-2 -11 5 50.89 11.9
2 11 -5 63.09 11.3
-2 -11 4 31.4 8.5
-2 -11 4 21.8 7.9
2 11 -4 31.6 8.2
-2 -11 3 291.27 25.7
2 11 -3 327.57 26.5
2 11 -2 1.2 4.6
2 11 -1 401.06 31.8
-2 -11 0 -0.2 3.3
2 11 0 0.8 4.1
-2 -11 -1 424.66 31.7
2 11 1 396.76 32.3
-2 -11 -2 -1.1 3.6
2 11 2 1.5 3.8
2 11 2 4.7 4.2
-2 -11 -3 330.67 27.1
2 11 3 321.57 27
2 11 3 342.17 26.4
-2 -11 -4 21.7 7
2 11 4 31.9 7.2
2 11 4 34.1 8
2 11 4 17.6 7.8
-2 -11 -5 48.6 9.3
2 11 5 59.59 9.3
2 11 5 57.59 10.7
2 11 5 30.1 9
-2 -11 -6 18.1 6.8
2 11 6 17.1 7
2 11 6 14.9 6.8
2 11 7 37.1 10.2
2 11 8 6.3 6.7
2 11 9 82.79 16.3
-2 -10 9 0.2 8.4
-2 -10 8 15.9 8.2
-2 -10 7 20.4 8.9
-2 -10 6 5.5 4.5
-2 -10 6 5.6 6
-2 -10 5 25.1 8.2
-2 -10 5 38.3 9.6
-2 -10 5 21 8.1
2 10 -5 31.5 8
-2 -10 4 7.3 5.5
-2 -10 4 5.9 5.1
2 10 -4 6.5 5.3
-2 -10 3 30 7.1
2 10 -3 19.6 6.7
2 10 -2 14.5 5.6
-2 -10 1 3.6 3.5
2 10 -1 12 5.4
-2 -10 0 67.99 9.4
2 10 0 39.1 8.3
-2 -10 -1 4.2 3.9
2 10 1 16 4.3
2 10 1 8.8 4.8
-2 -10 -2 18.3 5.6
2 10 2 24.1 6.3
2 10 2 23.7 5.6
-2 -10 -3 29.2 7
2 10 3 24.3 6.5
2 10 3 38.7 10.9
2 10 3 38.9 7.8
-2 -10 -4 3.6 4.4
2 10 4 3.3 4.1
2 10 4 11.6 4.7
2 10 4 1.7 4.6
-2 -10 -5 17.7 6
2 10 5 22.6 7.1
2 10 5 16.1 6.8
2 10 5 31.3 6.4
-2 -10 -6 10.4 5.4
2 10 6 4.1 6.5
2 10 6 3.8 5.6
2 10 6 5.6 5.1
2 10 7 26.2 8.7
2 10 7 16.5 6.1
2 10 8 15.4 8.1
2 10 9 6.2 7.7
-2 -9 10 7.1 7.9
-2 -9 9 66.89 15.1
-2 -9 8 58.39 13
-2 -9 7 60.39 12.4
-2 -9 6 13.4 4.7
-2 -9 6 17.3 6.9
-2 -9 5 109.99 15.2
-2 -9 5 118.89 15.3
-2 -9 5 107.69 15.1
2 9 -5 114.19 13.9
-2 -9 4 27.9 8.2
-2 -9 4 30.8 7.4
-2 -9 4 36.3 8.2
2 9 -4 29.9 7
-2 -9 3 93.69 12.5
-2 -9 3 81.99 13.9
2 9 -3 105.89 12.8
2 9 -2 42.8 7.8
-2 -9 1 154.78 14.3
2 9 -1 172.88 17.4
-2 -9 0 4.9 3.5
2 9 0 0.5 3.3
2 9 0 -1.4 1.7
-2 -9 -1 158.68 14
2 9 1 145.49 17.8
2 9 1 140.79 12.3
2 9 1 128.99 14.7
-2 -9 -2 33.4 6.8
2 9 2 37.1 7.4
2 9 2 55.79 7.9
2 9 2 55.29 12.1
-2 -9 -3 75.69 10.5
2 9 3 105.99 12.3
2 9 3 82.39 14.5
2 9 3 93.99 11.5
-2 -9 -4 29.8 6.6
2 9 4 29.8 6
2 9 4 20.3 7.1
2 9 4 17.5 6.6
2 9 4 30.8 7.1
-2 -9 -5 111.49 13.2
2 9 5 138.49 13
2 9 5 99.69 13.8
2 9 5 93.09 14.8
2 9 5 109.19 15.5
-2 -9 -6 19.2 5.8
2 9 6 14.1 5.8
2 9 6 9.8 6.2
2 9 6 11.8 5.9
2 9 7 72.09 13
2 9 8 55.69 12
2 9 9 54.69 13.1
2 9 10 11.7 7.8
-2 -8 11 -1.7 5.6
-2 -8 9 70.99 14.7
-2 -8 8 90.79 16.1
-2 -8 7 50.69 11.4
-2 -8 6 93.59 15.1
-2 -8 6 118.09 16.3
-2 -8 5 44.3 9.1
-2 -8 5 38.1 8.1
-2 -8 5 57.09 10.4
2 8 -5 59.19 8.9
-2 -8 4 109.29 13.5
-2 -8 4 99.09 12.9
-2 -8 4 82.19 13.3
2 8 -4 125.79 13.2
-2 -8 3 52.59 8.9
-2 -8 3 85.39 13.8
2 8 -3 92.19 10.7
-2 -8 2 47.5 10.2
2 8 -2 60.69 8.5
2 8 -2 40.8 9.5
-2 -8 1 58.29 12.3
-2 -8 1 46.4 7.3
2 8 -1 49.2 4.8
2 8 -1 89.89 19
2 8 -1 46.6 7.8
2 8 -1 76.49 14.2
-2 -8 0 367.06 27.1
2 8 0 364.36 31.8
2 8 0 403.26 28.1
2 8 0 339.67 30.9
2 8 0 385.46 25.4
-2 -8 -1 50.09 10.9
-2 -8 -1 41.9 6.9
2 8 1 42.5 7.3
2 8 1 57.69 12.1
2 8 1 57.89 6.9
2 8 1 40.5 9.6
-2 -8 -2 53.69 7.8
2 8 2 50.59 7.2
2 8 2 68.89 9.1
2 8 2 52.29 10.2
2 8 2 27.4 7.3
-2 -8 -3 85.79 10.2
2 8 3 102.49 11.6
2 8 3 84.39 10.3
2 8 3 52.79 10.3
2 8 3 107.09 16.4
-2 -8 -4 122.79 12.1
2 8 4 99.29 15
2 8 4 113.19 11.4
2 8 4 68.79 11.8
2 8 4 95.49 12.1
-2 -8 -5 38.9 7
2 8 5 52.59 6.9
2 8 5 31.6 7.6
2 8 5 50.99 10.5
2 8 5 36.6 7.7
-2 -8 -6 110.39 12.9
2 8 6 117.49 12.7
2 8 6 91.89 14.2
2 8 6 137.29 13.6
2 8 7 94.89 14.6
2 8 8 85.29 14.5
2 8 9 86.59 15.4
2 8 10 123.69 19.7
2 8 11 3.3 7.5
-2 -7 11 -0.3 5
-2 -7 10 7.7 6.8
-2 -7 9 22.1 8.9
-2 -7 8 -1.8 4.8
-2 -7 7 18.1 6.9
-2 -7 6 97.59 14.4
-2 -7 5 38.3 7
-2 -7 5 40.6 8.5
-2 -7 5 45.7 9.3
2 7 -5 43.7 7.2
-2 -7 4 36.8 7.8
-2 -7 4 52.69 9.4
-2 -7 4 49.5 8.7
2 7 -4 42.5 13.5
2 7 -4 68.69 8.5
2 7 -4 51.89 8.1
-2 -7 3 521.05 38.7
-2 -7 3 517.75 36.3
2 7 -3 507.25 35.7
2 7 -3 514.65 36.5
2 7 -3 480.05 39.2
-2 -7 2 4.8 4.2
2 7 -2 4.7 4.6
2 7 -2 3.2 3.6
2 7 -2 5.6 3.3
2 7 -2 2.2 3.7
-2 -7 1 185.28 19.6
-2 -7 1 193.88 16
2 7 -1 206.28 19.9
2 7 -1 217.78 20.5
2 7 -1 215.98 17
2 7 -1 205.68 13.9
-2 -7 0 19.3 7.6
-2 -7 0 52.09 6.9
2 7 0 48.3 10.1
2 7 0 56.69 5.7
2 7 0 31.1 7
2 7 0 55.09 7.4
-2 -7 -1 176.88 15
-2 -7 -1 163.28 18.3
2 7 1 182.98 15.5
2 7 1 199.78 14.6
2 7 1 184.78 18.9
2 7 1 189.18 18.6
-2 -7 -2 14.9 4
-2 -7 -2 7.1 4.9
-2 -7 -2 2.4 5.3
2 7 2 3.4 4
2 7 2 6.2 3.4
2 7 2 14.3 4.1
2 7 2 4.5 3.6
-2 -7 -3 541.85 36
-2 -7 -3 528.95 40.4
2 7 3 467.45 38.7
2 7 3 527.95 35.8
2 7 3 529.95 39.7
2 7 3 507.65 36.5
-2 -7 -4 50.49 7.3
-2 -7 -4 50.89 10.5
2 7 4 66.69 9.5
2 7 4 51.09 9.2
2 7 4 41.4 8.3
2 7 4 50.59 6.9
-2 -7 -5 56.49 7.7
2 7 5 44.9 5.6
2 7 5 38.9 8.3
2 7 5 33.9 7.8
2 7 5 40.1 7.8
-2 -7 -6 73.09 9.7
2 7 6 80.89 12.2
2 7 7 24.5 7.6
2 7 8 6 6
2 7 9 39 11.2
2 7 10 19.1 8.5
2 7 11 11.9 8.6
-2 -6 11 6.7 5.9
-2 -6 10 40.1 9.8
-2 -6 9 129.79 18.6
-2 -6 8 54.99 11.9
-2 -6 7 13.5 5.8
-2 -6 6 118.59 15.3
-2 -6 5 14.3 5.7
-2 -6 5 9.4 4.6
2 6 -5 11.7 4
2 6 -5 16.3 4.3
-2 -6 4 4.3 3.6
-2 -6 4 3 2.9
-2 -6 4 6 3.5
2 6 -4 3.5 2.5
2 6 -4 1.9 2.7
-2 -6 3 110.19 11.4
-2 -6 3 89.29 11.1
-2 -6 3 107.59 11.9
2 6 -3 80.09 10.2
2 6 -3 93.19 13.5
2 6 -3 88.59 9.9
-2 -6 2 49.1 9.1
2 6 -2 56.49 10.4
2 6 -2 62.09 11.2
2 6 -2 57.49 7.6
2 6 -2 41.7 7.6
-2 -6 1 112.49 9.8
-2 -6 1 105.29 12.9
2 6 -1 92.39 10.6
2 6 -1 103.79 7.9
2 6 -1 96.99 11.9
2 6 -1 180.68 20
2 6 -1 104.79 12.8
-2 -6 0 27.9 4.7
2 6 0 31.1 5.3
2 6 0 27.6 3.8
2 6 0 32.7 6.7
2 6 0 17.1 5.5
2 6 0 33.6 7.3
-2 -6 -1 87.09 9.8
-2 -6 -1 101.99 12.7
-2 -6 -1 117.69 13.5
2 6 1 106.99 12.3
2 6 1 90.69 10.3
2 6 1 105.49 9.1
2 6 1 109.69 13
-2 -6 -2 27.2 6.2
-2 -6 -2 44.2 8.7
-2 -6 -2 55.19 6.8
2 6 2 55.99 10.1
2 6 2 48.8 6.7
2 6 2 45 6.2
2 6 2 39.2 7.7
-2 -6 -3 100.09 9.6
-2 -6 -3 55.39 8.5
2 6 3 59.39 9.6
2 6 3 83.39 8.7
2 6 3 100.09 10.6
2 6 3 94.69 10.9
-2 -6 -4 3.1 2.9
-2 -6 -4 0.9 2.9
2 6 4 0.8 2.7
2 6 4 -1.4 4
2 6 4 1.9 2.1
2 6 4 3.1 3
-2 -6 -5 13.2 4
2 6 5 16.8 4.6
2 6 5 19.2 5.9
2 6 5 12.7 2.3
2 6 5 12.8 4.5
-2 -6 -6 123.59 12.7
2 6 6 125.29 15.1
2 6 7 18.9 7.2
2 6 8 42.5 9.9
2 6 9 126.39 17.6
2 6 10 67.09 13.6
2 6 11 7.5 7.6
-2 -5 12 6.8 5.7
-2 -5 11 13.9 7.2
-2 -5 10 34.1 9.8
-2 -5 9 13.2 7
-2 -5 8 42.7 10.3
-2 -5 7 7.4 5.2
-2 -5 6 109.99 14.3
-2 -5 5 51.39 4.8
-2 -5 5 52.19 8.9
2 5 -5 47.8 6.5
2 5 -5 49.6 6.5
-2 -5 4 186.58 16.3
-2 -5 4 223.18 17.4
-2 -5 4 180.98 15
2 5 -4 178.38 14.9
2 5 -4 194.08 14.7
-2 -5 3 -1.3 2
-2 -5 3 2.5 2.7
-2 -5 3 0.7 2.7
2 5 -3 0.4 3
2 5 -3 -2.5 2
2 5 -3 -1.8 1.9
-2 -5 2 354.66 28.3
2 5 -2 373.06 29
2 5 -2 354.46 26
2 5 -2 413.96 29.2
2 5 -2 372.76 26.9
-2 -5 1 265.07 20.6
-2 -5 1 235.18 17.2
2 5 -1 215.18 17.4
2 5 -1 255.77 20.5
2 5 -1 232.38 20.3
2 5 -1 217.88 18.4
-2 -5 0 161.68 13.4
2 5 0 155.48 13.7
2 5 0 190.78 16.7
2 5 0 185.18 16.6
2 5 0 171.58 15
2 5 0 182.98 12.6
-2 -5 -1 204.88 19.2
-2 -5 -1 247.88 19.8
-2 -5 -1 232.08 16.7
2 5 1 219.98 19.6
2 5 1 239.28 19.2
2 5 1 222.28 16.3
2 5 1 218.08 16.9
2 5 1 216.78 18.5
-2 -5 -2 296.37 25.4
-2 -5 -2 324.37 22.9
2 5 2 333.37 23.3
2 5 2 335.07 23.1
2 5 2 329.47 25.4
2 5 2 335.87 25.9
-2 -5 -3 -1.1 1.8
-2 -5 -3 0.3 3.4
2 5 3 0.4 1.7
2 5 3 1.9 2.7
2 5 3 1.4 2.6
2 5 3 -2.7 2.7
-2 -5 -4 200.88 15.4
-2 -5 -4 194.58 20.5
2 5 4 201.78 17.7
2 5 4 229.18 17.7
2 5 4 223.18 14.8
2 5 4 181.48 16.5
-2 -5 -5 53.79 6.6
2 5 5 37 7.5
-2 -5 -6 149.09 12.7
2 5 6 135.79 15.9
2 5 7 8 5.3
2 5 8 58.19 11.3
2 5 9 17.3 7.1
2 5 10 50.09 11.6
2 5 11 21.2 9.1
2 5 12 6.5 8.3
-2 -4 12 3 4.6
-2 -4 11 2.1 5.4
-2 -4 10 24.3 8.3
-2 -4 9 134.69 18.3
-2 -4 8 106.09 14.9
-2 -4 7 107.29 15
-2 -4 7 127.79 11.1
-2 -4 6 111.79 13.6
-2 -4 6 109.39 9.5
-2 -4 5 72.99 10.4
-2 -4 5 79.29 7
2 4 -5 86.49 7.6
2 4 -5 76.09 7.1
-2 -4 4 67.69 9.7
-2 -4 4 71.89 9.1
-2 -4 4 59.29 5.3
2 4 -4 66.79 7.4
2 4 -4 65.09 6.7
-2 -4 3 284.87 20.2
-2 -4 3 273.27 20.1
-2 -4 3 253.77 20.3
2 4 -3 277.97 19.6
2 4 -3 246.18 18.7
2 4 -3 272.77 21.1
-2 -4 2 411.36 28.7
-2 -4 2 398.36 29.5
2 4 -2 424.06 30
2 4 -2 413.46 27.8
2 4 -2 409.56 28.5
-2 -4 1 354.96 25.4
-2 -4 1 421.46 28.4
2 4 -1 350.26 25.8
2 4 -1 372.86 28.2
2 4 -1 349.37 26.6
2 4 -1 440.86 28.6
-2 -4 0 306.87 23.3
-2 -4 0 298.27 20.3
2 4 0 266.17 22.6
2 4 0 300.67 20.6
2 4 0 300.27 19.5
2 4 0 281.77 21.5
-2 -4 -1 341.17 27.4
-2 -4 -1 375.66 25.3
-2 -4 -1 406.26 27.9
2 4 1 362.26 26.9
2 4 1 362.56 27.8
2 4 1 373.86 25.2
2 4 1 383.86 25.5
2 4 1 382.96 27.6
-2 -4 -2 444.06 28
-2 -4 -2 387.16 30
-2 -4 -2 441.86 30.8
2 4 2 398.36 29.7
2 4 2 425.46 30.4
2 4 2 434.76 28.1
2 4 2 381.96 28.3
-2 -4 -3 345.97 27
-2 -4 -3 287.77 23.5
-2 -4 -3 300.17 20.9
2 4 3 314.97 23.3
2 4 3 281.17 22.4
2 4 3 279.27 21.9
2 4 3 309.37 20.7
-2 -4 -4 63.99 7
2 4 4 70.09 8.2
2 4 4 56.59 8
2 4 4 65.79 5
2 4 4 62.29 6.9
-2 -4 -5 99.39 8.9
2 4 5 113.89 13
-2 -4 -6 105.39 9.7
2 4 6 109.59 13.5
2 4 7 119.79 15.4
2 4 8 82.79 12.9
2 4 9 144.49 18.9
2 4 10 54.09 12.1
2 4 11 -2.1 4.8
2 4 12 16.7 8.8
-2 -3 12 -0.1 4.6
-2 -3 11 29.9 9.2
-2 -3 9 34.5 9.8
-2 -3 9 61.99 11.5
-2 -3 8 37.9 7.2
-2 -3 8 72.79 11.9
-2 -3 7 71.09 11
-2 -3 7 63.09 8.4
-2 -3 6 100.39 9.5
-2 -3 6 107.99 13.1
-2 -3 5 206.68 17
-2 -3 5 194.48 14.4
2 3 -5 186.18 13.1
-2 -3 4 265.47 17.9
-2 -3 4 255.07 20.2
2 3 -4 257.97 17.4
2 3 -4 261.57 18.8
-2 -3 3 355.66 25.3
-2 -3 3 359.36 24.6
-2 -3 3 371.76 23.3
-2 -3 3 343.47 22.5
2 3 -3 353.26 23.8
2 3 -3 307.67 24.4
2 3 -3 334.87 22.9
-2 -3 2 196.68 14.9
-2 -3 2 192.38 14.8
2 3 -2 181.48 15.1
2 3 -2 191.48 14.4
2 3 -2 203.38 13.7
-2 -3 1 66.69 5.8
-2 -3 1 76.89 7.9
2 3 -1 62.79 6
2 3 -1 70.29 7.9
2 3 -1 65.79 7.6
2 3 -1 62.69 6.5
-2 -3 0 2357.26 161.68
-2 -3 0 3025 165.48
2 3 0 2513.55 161.88
2 3 0 2643.64 162.08
2 3 0 2494.95 162.98
-2 -3 -1 50.19 7.1
-2 -3 -1 76.49 8
-2 -3 -1 63.39 5.9
2 3 1 63.79 7.5
2 3 1 83.89 8.6
2 3 1 76.39 6.3
2 3 1 68.69 6
2 3 1 64.49 8
-2 -3 -2 215.58 16.8
-2 -3 -2 203.38 16.3
-2 -3 -2 228.68 14.8
2 3 2 196.58 15.8
2 3 2 207.08 15.3
2 3 2 200.18 14.5
2 3 2 194.78 16.5
2 3 2 209.48 16.1
-2 -3 -3 341.77 26.1
-2 -3 -3 364.66 23.9
-2 -3 -3 323.97 25.6
2 3 3 423.36 25.5
2 3 3 362.06 25.4
2 3 3 328.97 24.6
2 3 3 354.46 23.2
-2 -3 -4 268.77 18.2
2 3 4 256.07 20.3
-2 -3 -5 183.98 13.7
2 3 5 211.68 16.9
-2 -3 -6 86.69 7.6
2 3 6 80.89 10.9
2 3 7 71.39 10.8
2 3 8 61.59 11.1
2 3 9 48.8 10.9
2 3 10 40.1 10.2
2 3 11 69.19 14.1
2 3 12 0.8 5.6
-2 -2 12 21.2 7.2
-2 -2 11 37.6 9.2
-2 -2 10 166.18 18.5
-2 -2 9 9 5
-2 -2 9 23.1 7.3
-2 -2 9 24 6.4
-2 -2 8 206.08 17.9
-2 -2 8 199.68 17.7
-2 -2 8 219.08 19.9
-2 -2 7 55.69 9.7
-2 -2 7 49.9 7.3
-2 -2 7 38.2 6.7
-2 -2 6 266.67 19.4
-2 -2 6 254.67 21
-2 -2 6 236.98 19.3
-2 -2 5 32.2 6.3
-2 -2 5 29.2 5.2
-2 -2 5 34.3 5
-2 -2 4 549.95 35.6
-2 -2 4 551.24 37.3
-2 -2 4 523.65 36.2
-2 -2 3 588.14 36.4
-2 -2 3 583.44 37.9
-2 -2 3 558.44 37.3
2 2 -3 542.85 36.7
-2 -2 2 589.94 39
-2 -2 2 605.34 37.8
-2 -2 2 585.24 38.1
2 2 -2 569.34 38.3
2 2 -2 579.24 37.1
-2 -2 1 417.76 24.8
-2 -2 1 369.36 26.1
2 2 -1 378.06 26.2
2 2 -1 387.26 25
2 2 -1 374.66 26.3
-2 -2 0 2561.34 159.98
2 2 0 2350.06 157.58
2 2 0 2704.53 159.28
-2 -2 -1 406.26 27.2
-2 -2 -1 372.96 26.8
-2 -2 -1 401.96 25.7
2 2 1 415.26 27.3
2 2 1 413.96 25.7
2 2 1 416.56 26.8
2 2 1 366.16 26.7
2 2 1 375.36 25.8
-2 -2 -2 610.34 39.4
-2 -2 -2 535.15 38.7
-2 -2 -2 633.24 37.8
2 2 2 537.05 38.3
2 2 2 605.14 37.5
2 2 2 572.64 38.9
2 2 2 584.54 38.6
2 2 2 648.24 39.1
-2 -2 -3 558.94 36.8
-2 -2 -3 558.74 38.1
-2 -2 -3 594.64 38.7
2 2 3 610.24 38.8
-2 -2 -4 554.64 35
2 2 4 543.75 37.7
-2 -2 -5 29.2 3
2 2 5 21.9 5.2
2 2 5 30.4 5.6
2 2 6 268.77 21.8
2 2 6 294.57 21.7
2 2 6 258.97 19.1
2 2 7 59.69 10
2 2 7 70.29 7.8
2 2 7 55.89 9.3
2 2 8 191.78 18.4
2 2 8 201.28 19
2 2 9 28.1 8.7
2 2 9 20.7 7
2 2 10 176.38 21
2 2 10 182.98 22.3
2 2 11 18.8 8.1
2 2 12 46.9 11.9
-2 -1 12 11 6.7
-2 -1 11 145.29 18.3
-2 -1 10 -0.6 4.5
-2 -1 10 -2.5 5.7
-2 -1 9 159.78 15.7
-2 -1 9 183.68 19.1
-2 -1 9 179.88 20.8
-2 -1 8 19.6 6.2
-2 -1 8 21 5.6
-2 -1 8 14.9 5.1
-2 -1 7 236.98 19
-2 -1 7 227.68 19.9
-2 -1 7 225.08 18.4
-2 -1 6 5.2 3.1
-2 -1 6 3.5 3.1
-2 -1 6 4.1 3
2 1 -6 2.6 2.7
-2 -1 5 113.09 9.9
-2 -1 5 104.79 9.7
-2 -1 5 92.69 11.1
2 1 -5 107.49 9.3
-2 -1 4 296.27 20.1
-2 -1 4 261.07 20.1
-2 -1 4 292.57 21
-2 -1 3 583.84 38.6
-2 -1 3 571.74 37.7
-2 -1 3 592.14 38.2
-2 -1 2 136.79 10.5
-2 -1 2 141.09 10.4
-2 -1 2 144.79 9.9
-2 -1 1 1566.44 94.49
-2 -1 1 1469.45 94.49
-2 -1 1 1545.45 93.69
-2 -1 1 1485.45 94.29
2 1 -1 1456.15 94.59
2 1 -1 1554.24 94.69
-2 -1 0 696.53 43
-2 -1 0 658.43 44.6
2 1 0 663.13 43.1
2 1 0 693.53 44.1
-2 -1 -1 1434.86 94.39
-2 -1 -1 1557.44 94.69
-2 -1 -1 1557.24 93.59
2 1 1 1439.96 94.29
2 1 1 1480.65 93.79
2 1 1 1516.25 93.49
2 1 1 1550.24 94.49
-2 -1 -2 132.69 10.2
-2 -1 -2 136.89 9.2
-2 -1 -2 134.19 10.1
2 1 2 136.59 9.7
2 1 2 134.89 10.3
2 1 2 143.29 8.8
2 1 2 134.59 9.6
-2 -1 -3 511.25 35.3
-2 -1 -3 555.94 34.5
-2 -1 -3 558.84 35.5
2 1 3 564.94 36.7
2 1 3 579.94 36.4
2 1 4 273.97 20.3
2 1 4 268.17 20
2 1 4 274.87 18.2
2 1 5 105.79 8.5
2 1 5 106.69 10.5
2 1 5 109.09 11.8
2 1 6 3.4 2.2
2 1 6 5.9 3.6
2 1 6 4.5 3.3
2 1 7 265.67 21.4
2 1 7 238.48 20.8
2 1 7 238.78 17.8
2 1 8 13.4 5.4
2 1 8 26 7
2 1 9 161.88 20.3
2 1 9 225.38 22.9
2 1 10 12.7 7
2 1 11 162.98 21
2 1 11 152.78 20.9
2 1 12 0.1 5.6
2 1 12 3.4 6.6
-2 0 12 26 8.9
-2 0 12 23 9.2
-2 0 11 87.59 13.7
-2 0 11 45 10.9
-2 0 10 13 6.8
-2 0 10 9.7 5.7
-2 0 9 51.29 8.6
-2 0 9 57.09 10.9
-2 0 9 40.7 8.7
-2 0 8 38.5 7.2
-2 0 8 49.1 9.3
-2 0 8 56.19 9
-2 0 7 122.29 13
-2 0 7 128.39 14.1
-2 0 7 122.49 14.5
2 0 -7 134.79 12.2
-2 0 6 174.18 15
-2 0 6 162.68 15.3
-2 0 6 178.28 14.5
2 0 -6 174.78 14.5
-2 0 5 1187.98 77.99
-2 0 5 1216.68 77.19
-2 0 5 1220.78 77.59
2 0 -5 1173.28 77.29
-2 0 4 91.09 8.1
-2 0 4 81.79 8.7
-2 0 4 77.49 8.8
2 0 -4 85.49 8.2
-2 0 3 298.87 20.4
-2 0 3 273.67 20.3
-2 0 3 312.27 20.8
-2 0 2 1033 64.29
-2 0 2 1003.1 64.19
-2 0 2 1015.4 64.29
-2 0 1 2231.38 129.99
2 0 -1 1959.6 130.09
-2 0 0 232.48 14.6
-2 0 0 215.88 15.2
-2 0 -1 2065.89 133.19
-2 0 -1 1932.31 133.09
-2 0 -1 2289.87 132.59
2 0 1 2232.08 133.49
2 0 1 2105.79 132.49
2 0 1 2097.59 133.19
2 0 1 2133.89 133.19
2 0 1 2272.37 132.99
-2 0 -2 934.81 58.69
-2 0 -2 926.31 57.89
-2 0 -2 894.31 58.59
2 0 2 994.7 59.39
2 0 2 913.71 58.99
2 0 3 301.47 20
2 0 3 269.67 19.5
2 0 3 266.87 18
2 0 4 78.19 8.4
2 0 4 79.99 6.3
2 0 4 68.59 8.3
2 0 5 1171.88 76.49
2 0 5 1175.88 73.89
2 0 5 1157.48 75.99
2 0 6 179.58 15.5
2 0 6 172.18 13.4
2 0 6 193.78 16.4
2 0 7 139.19 15
2 0 7 121.49 14.8
2 0 7 129.19 11
2 0 8 77.09 12
2 0 8 54.39 9.8
2 0 9 50.89 10.3
2 0 9 45.2 9.5
2 0 10 9.2 6.2
2 0 10 5.5 5.9
2 0 11 79.69 13.3
2 0 11 56.49 12.6
2 0 12 16.7 8.6
2 0 12 27.7 9.7
-2 1 12 15.8 7.6
-2 1 12 22.2 8.6
-2 1 11 110.59 16.9
-2 1 11 140.99 19.1
-2 1 10 3.6 5
-2 1 10 12 5.7
-2 1 9 167.38 19.8
-2 1 9 199.68 21.1
-2 1 8 23.2 6.4
-2 1 8 31.6 7.3
-2 1 8 13.2 5
-2 1 7 244.98 20.2
-2 1 7 256.77 20.4
-2 1 7 233.38 19.1
2 -1 -7 221.88 19.4
-2 1 6 2.8 2.8
-2 1 6 9.1 3.9
-2 1 6 3.3 3
2 -1 -6 9.5 4.2
-2 1 5 110.89 10.5
-2 1 5 94.09 10.8
-2 1 5 108.59 10.8
2 -1 -5 113.49 11
-2 1 4 266.27 20.3
-2 1 4 291.27 20.3
2 -1 -4 280.37 21.1
-2 1 3 641.44 40.3
-2 1 3 614.94 40.7
2 -1 -3 597.34 41.4
-2 1 2 145.39 10.2
-2 1 2 135.49 10.6
2 -1 -2 137.89 9.8
2 -1 -2 149.88 9.9
2 -1 -2 161.58 13.4
-2 1 1 1546.15 91.19
-2 1 1 1439.16 91.29
-2 1 1 1486.15 90.59
2 -1 -1 1501.55 90.69
2 -1 -1 1346.57 91.29
-2 1 0 697.83 45.3
-2 1 0 728.03 46.3
-2 1 -1 1470.55 92.59
-2 1 -1 1442.66 91.79
2 -1 1 1480.55 92.49
2 -1 1 1513.35 92.09
-2 1 -2 127.29 9.8
-2 1 -2 136.99 8.9
2 -1 2 130.09 9.3
2 -1 2 129.79 8.4
2 -1 2 125.89 10.1
2 -1 2 135.49 9.5
2 -1 2 129.59 9.2
-2 1 -3 561.74 36.5
-2 1 -3 548.35 35.4
-2 1 -3 555.84 36.4
2 -1 3 586.84 38
2 -1 3 598.54 37.1
2 -1 4 284.37 20.2
2 -1 4 274.87 21
2 -1 5 93.19 11.3
2 -1 5 116.29 10.3
2 -1 6 1.8 3.3
2 -1 6 5.6 3.4
2 -1 7 248.08 20
2 -1 7 231.98 20.8
2 -1 8 18.3 6.2
2 -1 8 22.5 6.7
2 -1 9 153.68 19.7
2 -1 9 193.98 20.3
2 -1 10 0.6 5
2 -1 10 7.4 6.7
2 -1 11 130.79 19.3
2 -1 11 173.18 20.5
2 -1 12 1.3 6.1
2 -1 12 5 5.4
-2 2 12 71.59 14.1
-2 2 12 64.59 13.1
-2 2 11 16.3 6.9
-2 2 11 12.2 7.1
-2 2 10 168.98 20.5
-2 2 10 206.58 22.4
-2 2 9 10.9 5.2
-2 2 9 16.2 5.9
-2 2 8 192.28 17.5
-2 2 8 211.38 19.4
-2 2 8 219.58 19.1
-2 2 7 74.09 10.1
-2 2 7 74.09 10.7
-2 2 7 55.69 8.5
2 -2 -7 63.79 10.6
-2 2 6 261.37 21.6
-2 2 6 260.97 20.5
-2 2 6 285.77 21.3
2 -2 -6 282.87 22.5
-2 2 5 37.2 6.2
-2 2 5 31.3 5.5
-2 2 4 551.84 38.5
-2 2 4 580.74 37.6
-2 2 3 601.24 39.9
-2 2 3 593.94 38.7
2 -2 -3 593.24 37.6
2 -2 -3 612.04 39
-2 2 2 606.54 37.6
-2 2 2 566.94 38.6
-2 2 2 616.14 37.6
-2 2 2 610.54 37.9
-2 2 2 611.44 38.8
-2 2 2 593.54 39.1
2 -2 -2 623.44 38
2 -2 -2 579.54 39.2
-2 2 1 386.36 24.9
-2 2 1 376.26 26.1
-2 2 1 392.36 25.1
2 -2 -1 410.46 24.9
2 -2 -1 357.56 25.9
2 -2 0 2038.6 123.89
2 -2 0 1942.61 125.19
-2 2 -1 448.86 27.6
-2 2 -1 370.56 28.6
2 -2 1 446.46 28.9
2 -2 1 439.86 27.9
-2 2 -2 656.23 39.2
-2 2 -2 609.04 40.4
2 -2 2 621.04 40.2
2 -2 2 597.44 40
2 -2 2 590.24 38.9
-2 2 -3 573.94 36.3
-2 2 -3 556.04 37.5
2 -2 3 573.64 36.9
2 -2 3 580.54 38.4
-2 2 -4 508.65 33.5
2 -2 4 528.35 35
2 -2 4 559.44 36.8
-2 2 -5 29 3.1
2 -2 5 30.1 6.2
2 -2 5 28.7 5
2 -2 6 294.27 21.5
2 -2 6 257.57 22.4
2 -2 7 60.79 9
2 -2 7 57.79 9.9
2 -2 8 198.88 18.4
2 -2 8 222.98 20.5
2 -2 9 17.8 6.1
2 -2 9 20.1 6.7
2 -2 10 198.18 20.9
2 -2 10 149.49 19.9
2 -2 11 61.19 12.5
2 -2 12 42.6 12.4
-2 3 12 0.9 6.6
-2 3 11 73.39 13.7
-2 3 11 77.79 14.5
-2 3 10 30.7 8.6
-2 3 10 17.1 7.3
-2 3 9 51.69 10.3
-2 3 9 52.49 9.8
-2 3 8 42.5 7.6
-2 3 8 33.3 8.4
-2 3 8 32.4 7.3
2 -3 -8 36.7 9.6
-2 3 7 59.49 9.7
-2 3 7 70.79 9.5
-2 3 6 95.39 10.6
-2 3 6 88.49 11.3
-2 3 5 190.38 14.9
-2 3 5 186.18 16.3
2 -3 -5 200.98 13.3
-2 3 4 268.67 20.9
2 -3 -4 283.37 18.5
-2 3 3 370.56 24
-2 3 3 349.87 25.1
-2 3 3 373.36 22.3
-2 3 3 326.17 23.7
2 -3 -3 364.66 25.4
2 -3 -3 343.37 23.4
-2 3 2 202.68 15.2
-2 3 2 204.68 15.9
-2 3 2 217.08 16.1
-2 3 2 201.58 14.2
2 -3 -2 218.88 14.5
2 -3 -2 199.58 16.2
-2 3 1 79.89 6.5
-2 3 1 60.59 7.6
-2 3 1 74.99 6.2
2 -3 -1 74.49 8.4
2 -3 -1 68.79 6.1
-2 3 0 3057.69 177.18
-2 3 0 2604.94 175.08
2 -3 0 2782.72 176.78
-2 3 -1 68.99 6.6
-2 3 -1 84.99 8.9
2 -3 1 67.59 6.6
2 -3 1 92.09 8.8
-2 3 -2 205.98 14.9
-2 3 -2 202.18 16.6
2 -3 2 204.08 16.4
2 -3 2 238.08 16
2 -3 2 211.18 14
-2 3 -3 305.57 23.3
-2 3 -3 324.97 21.8
2 -3 3 309.97 22.5
2 -3 3 348.97 23.7
2 -3 3 338.47 21.6
-2 3 -4 245.08 17.8
2 -3 4 265.87 18.5
2 -3 4 288.77 20.8
-2 3 -5 177.58 13.2
2 -3 5 201.88 16.8
2 -3 5 189.48 14.6
-2 3 -6 88.89 8.1
2 -3 6 100.89 9.6
2 -3 6 95.89 12.5
2 -3 7 43.3 9.1
2 -3 7 80.19 9.7
2 -3 8 34.2 9
2 -3 8 39.7 7.6
2 -3 9 32.3 9.2
2 -3 9 52.49 9.2
2 -3 10 61.89 11.8
2 -3 11 66.99 13.3
2 -3 12 10.8 7.2
-2 4 12 13 7.7
-2 4 11 -5.3 4.1
-2 4 10 37.1 9.5
-2 4 9 134.39 18.2
-2 4 8 87.39 13.2
-2 4 7 141.09 16.1
-2 4 6 110.19 13
-2 4 5 101.59 12
2 -4 -5 94.89 8.1
-2 4 4 56.49 8.2
2 -4 -4 64.69 6
-2 4 3 308.77 22
-2 4 3 287.87 19.9
-2 4 3 313.27 22.1
-2 4 3 291.87 22.1
2 -4 -3 294.67 20.5
-2 4 2 389.36 29.4
-2 4 2 435.36 31.1
-2 4 2 432.76 29
-2 4 2 437.66 31.1
2 -4 -2 454.15 29.1
2 -4 -2 459.45 31.6
-2 4 1 377.76 26.4
-2 4 1 384.36 26.9
-2 4 1 445.86 29.4
2 -4 -1 382.86 26.6
-2 4 0 327.47 25.4
-2 4 0 329.17 24.4
-2 4 0 417.86 28.3
2 -4 0 467.15 30.3
-2 4 -1 366.36 28.2
-2 4 -1 470.55 31.1
2 -4 1 404.36 28
2 -4 1 437.26 30.3
-2 4 -2 500.55 32.8
-2 4 -2 425.56 30
2 -4 2 433.06 31.9
2 -4 2 428.56 30.6
-2 4 -3 236.98 18.5
-2 4 -3 255.67 20.9
2 -4 3 273.57 20.2
2 -4 3 280.67 17.7
2 -4 3 265.97 20.1
-2 4 -4 51.59 5.8
2 -4 4 60.49 5.8
2 -4 4 31.3 3.2
2 -4 4 67.29 8.6
2 -4 4 51.79 5.7
-2 4 -5 77.89 7.2
2 -4 5 80.99 8.3
2 -4 5 67.49 10
-2 4 -6 118.49 11.8
2 -4 6 110.79 10.5
2 -4 6 113.49 14.2
2 -4 7 117.79 12.2
2 -4 7 95.19 14.2
2 -4 8 95.19 11.5
2 -4 8 76.29 13
2 -4 9 134.69 18.8
2 -4 10 40.3 10
2 -4 11 3.5 5.4
2 -4 12 4.6 7.2
-2 5 12 4.5 7.3
-2 5 11 45 11.9
-2 5 10 53.39 11.7
-2 5 9 32.7 9.2
2 -5 -9 11.8 10.3
-2 5 8 66.89 12.2
-2 5 7 14.6 5.8
-2 5 6 133.29 15.2
-2 5 5 46.2 8
2 -5 -5 37.9 5.3
-2 5 4 200.48 13.7
-2 5 4 194.88 16.3
-2 5 4 191.28 16.6
-2 5 4 196.58 16.2
2 -5 -4 213.68 15.2
-2 5 3 -0.4 2.4
-2 5 3 1.4 1.9
-2 5 3 0.5 2.5
-2 5 3 3.1 2.9
2 -5 -3 0.3 1.9
-2 5 2 331.47 25.3
-2 5 2 356.06 27.7
-2 5 2 363.16 25.4
-2 5 2 352.16 27.8
2 -5 -2 357.66 25.2
2 -5 -2 438.36 29.2
-2 5 1 224.28 17.1
-2 5 1 251.77 20.5
-2 5 1 217.68 17.7
-2 5 1 231.08 20.3
2 -5 -1 237.88 17.6
2 -5 -1 294.27 21.3
-2 5 0 179.18 13.5
-2 5 0 225.88 18.3
-2 5 0 184.08 14.9
2 -5 0 186.28 17
-2 5 -1 273.57 21.4
-2 5 -1 220.78 18.2
2 -5 1 266.87 21
2 -5 1 229.18 17.6
-2 5 -2 325.77 24.6
-2 5 -2 409.86 28.4
2 -5 2 341.27 25
2 -5 2 333.87 26.9
-2 5 -3 -0.1 2
-2 5 -3 2.1 3.6
2 -5 3 -0.8 2.5
2 -5 3 0.3 2.7
2 -5 3 -0.1 1.2
-2 5 -4 198.58 15
2 -5 4 206.18 15.3
2 -5 4 166.18 16.3
2 -5 4 186.88 16
2 -5 4 193.58 13.7
-2 5 -5 46.1 6.5
2 -5 5 54.99 6.3
2 -5 5 53.79 8.7
-2 5 -6 142.69 14.1
2 -5 6 144.59 16.3
2 -5 6 121.49 11.2
2 -5 7 12.8 6
2 -5 8 52.39 11
2 -5 9 21.7 8
2 -5 10 27.9 9.9
2 -5 11 23.8 8.2
2 -5 12 0.8 5.3
-2 6 11 0 5.8
-2 6 10 71.09 13.8
-2 6 9 137.29 18.5
-2 6 8 40.3 9
-2 6 7 8.1 5.3
-2 6 6 131.29 15.4
-2 6 5 12.8 4.2
-2 6 5 12.7 3.7
-2 6 5 15.5 4.9
2 -6 -5 18.9 4.2
-2 6 4 1 2.7
-2 6 4 -0.3 3.8
-2 6 4 2.8 1.9
-2 6 4 1.3 2.8
2 -6 -4 1.7 2.4
-2 6 3 99.59 13.6
-2 6 3 94.69 11.8
-2 6 3 92.89 10.8
-2 6 3 113.39 9.5
2 -6 -3 107.89 9.6
-2 6 2 42.6 6.3
-2 6 2 48.7 6.5
-2 6 2 48.8 8.6
-2 6 2 35.9 8
2 -6 -2 54.59 9.9
2 -6 -2 45.5 6.2
-2 6 1 117.99 10.6
-2 6 1 116.99 15.6
-2 6 1 108.99 9.4
-2 6 1 108.69 12.8
2 -6 -1 110.39 14.6
2 -6 -1 101.69 9.9
-2 6 0 29.9 7.2
-2 6 0 38.9 4.7
-2 6 0 28.3 5.3
2 -6 0 27.9 7.6
-2 6 -1 107.09 11.1
-2 6 -1 105.39 12.8
2 -6 1 96.69 9.2
2 -6 1 105.79 12.7
-2 6 -2 37.3 8.4
-2 6 -2 49.6 6.9
2 -6 2 52.99 7.2
2 -6 2 41.6 8.1
-2 6 -3 117.39 11.3
-2 6 -3 118.89 15.6
2 -6 3 93.79 7.2
2 -6 3 97.69 11.7
2 -6 3 86.49 12.3
-2 6 -4 6.4 3.4
-2 6 -4 10 5.7
2 -6 4 6.8 4.1
2 -6 4 1.6 2.4
2 -6 4 0.4 2.8
2 -6 4 3.6 1.9
-2 6 -5 11.8 3.9
2 -6 5 13.1 4.1
2 -6 5 10 4.5
-2 6 -6 127.19 14.4
2 -6 6 118.39 15.1
2 -6 7 7.6 5.6
2 -6 8 40.8 10.4
2 -6 9 95.59 16
2 -6 10 60.79 12.9
2 -6 11 0.6 6.1
-2 7 11 7.1 7.4
-2 7 10 18.4 7.9
-2 7 9 41.1 10.1
-2 7 8 7.6 5.5
-2 7 7 14.8 6
-2 7 6 74.09 11.6
-2 7 5 50.29 8.5
-2 7 5 60.39 5.9
-2 7 5 48.5 8.2
-2 7 5 52.09 9.1
2 -7 -5 45 7
-2 7 4 66.49 10.7
-2 7 4 45.5 8.7
-2 7 4 54.99 9
-2 7 4 64.29 7.6
2 -7 -4 70.49 8.5
-2 7 3 603.94 38.4
-2 7 3 522.35 41
-2 7 3 526.95 38.3
-2 7 3 539.45 41.4
2 -7 -3 581.84 38.3
-2 7 2 5.1 4.4
-2 7 2 2.7 2.8
-2 7 2 6.3 2.9
-2 7 2 7.7 4.9
2 -7 -2 4.7 2.9
2 -7 -2 1.9 3.8
-2 7 1 189.48 14.5
-2 7 1 184.88 18.9
-2 7 1 189.28 18.7
-2 7 1 190.38 15.9
2 -7 -1 186.38 18.9
2 -7 -1 184.58 15.3
-2 7 0 39 9
-2 7 0 44.6 7
-2 7 0 63.79 6.3
2 -7 0 36 9.6
-2 7 -1 201.88 15.9
-2 7 -1 192.98 19.1
2 -7 1 189.98 14.7
2 -7 1 152.48 17.7
-2 7 -2 12.5 6.2
-2 7 -2 11.1 4
2 -7 2 3.5 3.2
2 -7 2 3.8 3.9
-2 7 -3 541.95 37.1
-2 7 -3 521.25 40.8
2 -7 3 543.15 37.9
2 -7 3 532.45 33.8
2 -7 3 499.65 39.4
-2 7 -4 54.39 8.1
-2 7 -4 61.89 12.8
2 -7 4 63.09 8.2
2 -7 4 43 8.4
2 -7 4 49.99 9.4
-2 7 -5 66.69 9
2 -7 5 48.1 8.4
2 -7 5 44.3 9.1
-2 7 -6 88.09 12.6
2 -7 6 68.19 12
2 -7 7 28.1 8.1
2 -7 8 7.3 6.3
2 -7 9 37.2 10.9
2 -7 10 15.2 9.5
2 -7 11 7.6 6.1
-2 8 11 6.2 7.4
-2 8 10 112.89 18.3
-2 8 9 84.49 14.7
-2 8 8 100.09 15.1
-2 8 7 68.59 12.4
-2 8 6 98.19 11.1
-2 8 6 89.69 12.9
-2 8 5 41.3 8.6
-2 8 5 39.2 8.1
-2 8 5 45 6
-2 8 5 50.59 9.5
2 -8 -5 43.8 7.3
-2 8 4 103.79 15.1
-2 8 4 107.29 15.3
-2 8 4 97.79 12.4
-2 8 4 116.39 10.6
2 -8 -4 105.09 12
-2 8 3 86.49 10.2
-2 8 3 81.69 13.1
-2 8 3 63.69 9.1
-2 8 3 76.79 13
2 -8 -3 65.19 9.1
-2 8 2 68.39 9.1
-2 8 2 53.59 10.5
-2 8 2 65.19 8.1
-2 8 2 64.59 11.7
2 -8 -2 43.6 7.4
2 -8 -2 32 10.3
-2 8 1 57.09 11.2
-2 8 1 41.5 9.9
-2 8 1 52.49 6.7
-2 8 1 59.79 8.7
2 -8 -1 35 8.8
2 -8 -1 60.29 7.9
-2 8 0 352.46 23
-2 8 0 370.06 30
-2 8 0 361.76 25.7
2 -8 0 247.48 27.4
-2 8 -1 52.19 10.9
-2 8 -1 47 7.6
2 -8 1 39.4 8.8
2 -8 1 44.9 6.6
-2 8 -2 40.6 18.1
-2 8 -2 69.39 9.6
2 -8 2 57.49 8.6
2 -8 2 57.99 11.8
-2 8 -3 75.39 10.1
2 -8 3 82.19 11
2 -8 3 58.19 11
-2 8 -4 96.69 11.6
2 -8 4 81.69 10.6
2 -8 4 87.49 13.4
2 -8 4 106.99 13.4
-2 8 -5 41.3 7.9
2 -8 5 53.49 10.1
2 -8 5 53.89 10
-2 8 -6 90.99 14.2
2 -8 6 114.29 11.8
2 -8 6 116.99 16.3
2 -8 7 59.19 12.1
2 -8 8 79.09 14.7
2 -8 9 60.29 14.3
2 -8 10 61.79 14.2
2 -8 11 7 7.5
-2 9 10 15 8.7
-2 9 9 53.19 11.5
-2 9 8 62.69 12.4
-2 9 7 78.29 13.2
-2 9 6 17.5 5.6
-2 9 6 9.9 5.8
-2 9 6 8.7 5.5
-2 9 5 119.19 14.5
-2 9 5 108.79 15.5
-2 9 5 113.39 10.5
-2 9 5 109.79 13.8
2 -9 -5 87.19 11.9
-2 9 4 42 7.1
-2 9 4 30.4 9.1
-2 9 4 24.2 6.4
-2 9 4 24.6 7.8
2 -9 -4 32 6.6
-2 9 3 91.99 14.9
-2 9 3 80.09 10.5
-2 9 3 101.39 16.3
-2 9 3 107.39 12.5
2 -9 -3 81.29 10.8
-2 9 2 39.2 6.6
-2 9 2 33.7 9.3
-2 9 2 55.59 8.6
2 -9 -2 47.3 7.7
-2 9 1 161.68 13.4
-2 9 1 142.79 18.4
-2 9 1 168.38 15.5
2 -9 -1 171.78 15
-2 9 0 -4 2.4
-2 9 -1 140.89 15.6
2 -9 1 146.19 13.4
-2 9 -2 50.59 8.5
2 -9 2 32.7 7.1
-2 9 -3 96.79 12.6
2 -9 3 94.19 12.7
-2 9 -4 28.9 6.9
2 -9 4 26.3 8
2 -9 4 28.8 8
-2 9 -5 111.69 13.5
2 -9 5 113.19 15.2
2 -9 5 92.49 14.1
-2 9 -6 20.4 6.6
2 -9 6 10.5 7.3
2 -9 6 10.8 5.1
2 -9 7 71.79 13.8
2 -9 8 57.79 12.6
2 -9 9 45.2 13.3
2 -9 10 3.1 7.9
-2 10 9 10.3 7.6
-2 10 8 13.1 6.5
-2 10 7 14.9 6.8
-2 10 6 9 5.5
-2 10 6 4.4 5.3
-2 10 6 12.8 5.7
-2 10 5 28.8 6.1
-2 10 5 28.7 8.2
-2 10 5 37.1 8.4
-2 10 5 23.6 8.5
2 -10 -5 22.6 6.3
-2 10 4 4.6 3.5
-2 10 4 0.5 4.4
-2 10 4 12.1 4.9
2 -10 -4 9.8 5.2
-2 10 3 25.6 6.5
-2 10 3 39.4 7.2
-2 10 3 19.9 8
2 -10 -3 25.3 6.4
-2 10 2 18.5 7.9
-2 10 2 26.7 6.8
-2 10 2 26.3 5.7
2 -10 -2 33.8 7.1
-2 10 1 11.6 5
-2 10 1 18.8 4.5
-2 10 0 57.09 9.7
-2 10 -1 3.5 4
2 -10 1 18.7 5.6
-2 10 -2 23.9 6.4
2 -10 2 22.5 6.5
-2 10 -3 27.3 7.1
2 -10 3 30.3 7.8
-2 10 -4 3.1 4.5
-2 10 -5 30.6 7.8
2 -10 5 26.5 8.3
2 -10 5 37.8 9.3
-2 10 -6 21.9 7.4
2 -10 6 9.5 5.5
2 -10 6 4.7 6.5
2 -10 7 27.3 9.3
2 -10 8 8.4 7.4
2 -10 9 0.6 7
-2 11 9 75.89 14.3
-2 11 8 4.5 5.3
-2 11 7 19.2 7.7
-2 11 6 3.6 5.7
-2 11 6 18.2 6.8
-2 11 6 21.6 7.7
-2 11 5 36.5 8.4
-2 11 5 44.7 10.9
-2 11 5 67.69 9.5
2 -11 -5 36 8.1
-2 11 4 36.3 7.2
-2 11 4 25.9 6.9
-2 11 4 25.8 9.2
2 -11 -4 26.2 6.9
-2 11 3 357.06 27.4
-2 11 3 318.67 25.5
2 -11 -3 308.37 26.5
-2 11 2 8.7 4.8
-2 11 2 12.8 4.4
2 -11 -2 7.8 5
-2 11 1 394.46 31.4
-2 11 0 0.5 4.1
-2 11 -1 426.26 34.2
2 -11 1 446.46 32.8
-2 11 -2 10.8 5.6
2 -11 2 3.5 5.2
-2 11 -3 275.97 25
2 -11 3 306.97 25.6
-2 11 -4 36 8.5
2 -11 4 31.4 8.9
-2 11 -5 62.09 11.9
2 -11 5 68.19 13.5
-2 11 -6 5.6 6.2
2 -11 6 10.7 6.4
2 -11 6 8.6 7.4
2 -11 7 35 11.4
2 -11 8 8.6 7.8
2 -11 9 49.8 13.7
-2 12 8 21.9 8.3
-2 12 7 26.4 8.9
-2 12 6 54.19 10.8
2 -12 -6 39.8 11.2
-2 12 5 20 6.6
-2 12 5 18.3 5.9
-2 12 5 6.1 7.1
2 -12 -5 4.4 5.5
-2 12 4 39.8 8.4
-2 12 4 51.59 9.6
2 -12 -4 42.5 9.3
-2 12 3 13.7 5.9
-2 12 3 4.9 4.4
2 -12 -3 2.6 4.6
-2 12 2 20.8 6.6
-2 12 1 33.2 8
-2 12 0 24.1 7.5
-2 12 -1 48.5 10.2
2 -12 1 30.1 7.8
-2 12 -2 45.5 9.7
2 -12 2 29.2 8.4
-2 12 -3 -1.9 4
2 -12 3 12.2 6.7
-2 12 -4 49.7 10.5
2 -12 4 56.99 12.1
-2 12 -5 9 6.3
2 -12 5 7.2 6.8
-2 12 -6 49.1 10.9
2 -12 6 44.2 12.3
2 -12 7 16.3 9.5
2 -12 8 13.2 9.8
-2 13 7 20.9 8.6
-2 13 6 38.4 9.3
2 -13 -6 18.6 8.2
-2 13 5 3.1 7.4
-2 13 5 5.5 5.2
2 -13 -5 3.7 5.9
-2 13 4 27.5 7.9
-2 13 4 45.2 10.7
2 -13 -4 21.4 7.4
-2 13 3 17.1 6.6
2 -13 -3 20.6 6.6
-2 13 2 13.8 5.6
-2 13 1 23.6 8.3
-2 13 0 15.1 6.7
-2 13 -1 15.6 7.1
-2 13 -2 1.6 5.2
-2 13 -3 23.7 8
2 -13 3 11.6 7.8
-2 13 -4 23.1 8
2 -13 4 38.7 10.2
-2 13 -5 10.7 7.2
2 -13 5 4.5 7.5
-2 13 -6 7.9 6.8
2 -13 6 26.6 10.2
2 -13 7 20.7 10.6
-2 14 6 20.6 8.5
2 -14 -6 23.7 8.8
2 -14 -5 1.6 6.1
-2 14 4 26.8 8.1
2 -14 -4 10.3 7.2
-2 14 3 2.4 5.4
-2 14 2 62.79 12.5
-2 14 1 26 8.8
-2 14 0 11.6 6.6
-2 14 -1 25.8 9.2
-2 14 -2 47.7 11.8
-2 14 -3 -4.9 5
-2 14 -4 15.3 8
2 -14 4 31.3 10.8
-2 14 -5 1.1 6.6
2 -14 5 1.5 7
-2 14 -6 28.5 9.7
2 -14 6 14.9 10.2
-2 15 4 3.7 6
-2 15 3 15.1 8
-2 15 2 16.4 7.6
-2 15 1 46.1 11.1
-2 15 0 -3.6 5
-2 15 -1 51.59 11.9
-2 15 -2 4.5 6.2
-2 15 -3 8.9 7.4
-2 15 -4 1 7.2
-3 -15 4 -5.8 7.7
3 15 -4 -3.5 5.8
-3 -15 3 9.4 8.2
3 15 -3 0.4 5.9
-3 -15 2 25.9 9.2
3 15 -2 12.3 7.9
3 15 -1 -4 5.7
3 15 0 39.5 10.6
3 15 1 2.7 6.9
-3 -15 -2 15.7 7.7
3 15 2 30.6 9.5
-3 -15 -3 1.6 6.4
3 15 3 7.9 7.2
-3 -15 -4 5.7 7.3
3 15 4 -0.5 5.9
-3 -14 6 12.3 9.6
-3 -14 5 4.4 8.1
3 14 -5 15 8.1
-3 -14 4 -1.3 6.9
3 14 -4 6.1 7.3
-3 -14 3 30.2 9.3
3 14 -3 19 8
3 14 -2 3.5 5.9
3 14 -1 0.1 5.3
3 14 0 -3.5 4.6
-3 -14 -1 -0.4 4.8
3 14 1 2.4 5
-3 -14 -2 -0.1 5.5
3 14 2 6.4 6.5
-3 -14 -3 31.4 8.8
3 14 3 11.1 6.5
-3 -14 -4 12.8 6.9
3 14 4 3.5 5.7
-3 -14 -5 5.2 6.5
-3 -14 -6 5.5 7.3
-3 -13 7 -0.1 7.9
-3 -13 6 7.8 8.4
-3 -13 5 0.9 7.1
3 13 -5 4.5 6.3
-3 -13 4 42.2 10.6
3 13 -4 63.79 12.4
-3 -13 3 2.9 6
3 13 -3 2.7 5.4
3 13 -2 48.5 10.1
3 13 -1 4.3 4.8
-3 -13 0 110.69 14.4
3 13 0 116.09 16.5
-3 -13 -1 9.8 5.7
3 13 1 1.6 4.9
-3 -13 -2 51.09 9.8
3 13 2 64.59 11.5
-3 -13 -3 5.9 5.2
3 13 3 1.6 4.4
-3 -13 -4 41 9.7
3 13 4 60.79 11
-3 -13 -5 6.9 6.4
3 13 5 5.2 6.4
3 13 5 2.3 4.9
-3 -13 -6 12.1 7
3 13 6 28.6 9.3
3 13 7 25.1 10
-3 -12 8 5.4 8.5
-3 -12 7 12.4 8.9
-3 -12 6 -8.8 4.9
-3 -12 5 23.7 9.4
3 12 -5 60.19 11.5
-3 -12 4 2.3 5.3
-3 -12 4 0.3 5.5
3 12 -4 5.8 5.4
-3 -12 3 -3.9 4.6
3 12 -3 -4.3 3.2
3 12 -2 2.8 5.3
3 12 -1 76.09 12.5
-3 -12 0 61.09 10.4
3 12 0 49.9 9.9
-3 -12 -1 67.59 10.7
3 12 1 69.39 11.7
-3 -12 -2 11.9 5.6
3 12 2 8.7 5.2
-3 -12 -3 2.5 5.2
3 12 3 3.1 4.7
-3 -12 -4 4.8 5.2
3 12 4 1.6 4.2
3 12 4 -5.2 4.1
-3 -12 -5 39.6 8.7
3 12 5 19.2 7.9
3 12 5 27.9 8.3
3 12 5 19.4 6.1
-3 -12 -6 10 6.8
3 12 6 -0.1 4.7
3 12 7 20.3 8.7
3 12 8 4.5 6.9
-3 -11 9 1.7 8
-3 -11 8 3.8 7.5
-3 -11 7 11.6 8.3
-3 -11 6 22.7 8.4
-3 -11 6 9.2 5.6
-3 -11 5 7.4 7.1
3 11 -5 8.7 6.1
-3 -11 4 20.5 7.4
-3 -11 4 25.5 8.1
3 11 -4 18.1 7
3 11 -3 19.9 7
3 11 -2 37.5 8.5
-3 -11 1 10.4 4.5
3 11 -1 7.4 5.1
-3 -11 0 8.8 4.9
3 11 0 5.1 4.6
-3 -11 -1 18.2 6
3 11 1 13.9 6.1
-3 -11 -2 61.19 10.6
3 11 2 69.39 11
-3 -11 -3 20.2 6.4
3 11 3 15.3 5.8
3 11 3 7.5 5.1
-3 -11 -4 14.5 5.8
3 11 4 30.9 8
3 11 4 15.4 8.1
3 11 4 23 6.5
-3 -11 -5 9.6 5.3
3 11 5 2 5.2
3 11 5 6.7 5.5
3 11 5 4.4 4
-3 -11 -6 34.3 8.3
3 11 6 4.1 5.3
3 11 6 14.7 7.2
3 11 7 5.6 7.2
3 11 8 11.7 7.3
3 11 9 13.6 9.4
-3 -10 9 9.3 8.6
-3 -10 8 47.9 13.4
-3 -10 7 47.6 12.4
-3 -10 6 3.5 6
-3 -10 6 18.2 5.8
-3 -10 5 117.79 16.4
-3 -10 5 102.69 14.9
-3 -10 5 80.99 13.7
3 10 -5 102.29 13.7
-3 -10 4 -0.1 4.3
-3 -10 4 15.3 6.1
3 10 -4 6.4 5
3 10 -3 12.7 5.8
3 10 -2 6.1 4.4
-3 -10 1 9.2 4.3
3 10 -1 15.9 5.5
-3 -10 0 52.99 8.2
3 10 0 37.8 8.2
-3 -10 -1 -1.7 3.1
3 10 1 17.1 5.3
3 10 1 4.1 3.3
-3 -10 -2 10.3 4.8
3 10 2 6.8 4.5
3 10 2 12.3 4.7
-3 -10 -3 16.1 5.5
3 10 3 17 5.6
3 10 3 12.7 7.1
3 10 3 28 6.4
-3 -10 -4 1 3.7
3 10 4 2.9 5.6
3 10 4 6.7 5.1
3 10 4 6.9 4.5
-3 -10 -5 83.19 11.6
3 10 5 95.19 13
3 10 5 104.39 11.8
3 10 5 63.09 11.8
-3 -10 -6 15.4 5.4
3 10 6 26.9 8.3
3 10 6 7.9 5.4
3 10 6 9.9 7.4
3 10 7 39.9 10.9
3 10 7 41.9 8.9
3 10 8 38.7 10.5
3 10 9 21 9.3
-3 -9 10 5.3 6.6
-3 -9 9 6.1 7.3
-3 -9 8 -0.4 5.7
-3 -9 7 2.8 5.5
-3 -9 6 19.5 7.5
-3 -9 6 10.2 4.4
-3 -9 5 17.4 6.5
-3 -9 5 9.8 6.1
-3 -9 5 11.7 6.4
3 9 -5 8.5 5.3
-3 -9 4 2.4 4.3
-3 -9 4 3.3 3.9
-3 -9 4 -1.4 4
3 9 -4 -2 3.1
-3 -9 3 12.1 6.2
3 9 -3 8 4.5
3 9 -2 34.4 7.4
-3 -9 1 26.9 5.7
3 9 -1 31.5 6.9
-3 -9 0 63.99 9.1
3 9 0 77.09 7.9
3 9 0 63.39 9.8
-3 -9 -1 15.2 4.8
3 9 1 22.5 4.8
3 9 1 8.3 5.2
3 9 1 45.7 7.7
-3 -9 -2 34.8 6.7
3 9 2 37.2 6.5
3 9 2 52.99 8.6
3 9 2 26.5 7.4
-3 -9 -3 2.8 3.2
3 9 3 8.4 4.3
3 9 3 8.4 4.7
3 9 3 24.5 5.7
-3 -9 -4 5.9 4.1
3 9 4 0.9 3.7
3 9 4 3.5 5.1
3 9 4 1.6 3.1
3 9 4 5.5 4.2
-3 -9 -5 8.9 4.9
3 9 5 16.3 4.7
3 9 5 14.6 6
3 9 5 15 7.6
3 9 5 9.3 5.1
-3 -9 -6 9.7 5.2
3 9 6 4.9 4.4
3 9 6 13.2 6.6
3 9 6 1.8 5.1
3 9 7 14.7 7.4
3 9 8 7.8 6.6
3 9 9 15.6 8
3 9 10 11.1 7.5
-3 -8 11 -0.4 6
-3 -8 10 1.8 6.5
-3 -8 9 10.4 7.1
-3 -8 8 28.1 9.6
-3 -8 7 45.7 10.7
-3 -8 6 40.4 9.7
-3 -8 6 35.8 9.1
-3 -8 5 6.9 4.3
-3 -8 5 0.8 4.3
-3 -8 5 3.6 4.9
3 8 -5 4.3 4
3 8 -5 6.5 4.3
-3 -8 4 -2.9 3
-3 -8 4 1.1 3.6
-3 -8 4 -0.9 3.3
3 8 -4 0.6 3.2
3 8 -4 -2.2 2.7
-3 -8 3 27.2 7.9
3 8 -3 18.5 5.1
3 8 -3 17 5.6
-3 -8 2 51.79 10.6
3 8 -2 42 8.5
3 8 -2 43.8 7.6
-3 -8 1 112.89 11.5
-3 -8 1 103.89 16
3 8 -1 124.39 15.2
3 8 -1 103.59 7.9
3 8 -1 94.19 11.4
3 8 -1 106.79 17.7
3 8 -1 65.49 13
-3 -8 0 4.7 3.2
-3 -8 0 -0.5 3.5
3 8 0 3.9 4.5
3 8 0 6.8 2.6
3 8 0 6.3 3.3
3 8 0 10.4 5.6
-3 -8 -1 101.69 10.8
-3 -8 -1 80.69 14.7
3 8 1 64.09 12.1
3 8 1 76.29 13.8
3 8 1 104.29 11.2
3 8 1 91.39 9.4
-3 -8 -2 58.29 8
3 8 2 41.1 7.3
3 8 2 65.29 13.3
3 8 2 61.79 8.1
3 8 2 39.4 10.3
-3 -8 -3 22.5 5.4
3 8 3 34.2 9.1
3 8 3 34.4 9.9
3 8 3 29.2 5.9
3 8 3 35.2 6.8
-3 -8 -4 1.3 3.3
3 8 4 -0.1 2.9
3 8 4 0 3.2
3 8 4 -0.8 2.1
3 8 4 2.6 4.3
-3 -8 -5 13.9 4.7
3 8 5 3.6 2.8
3 8 5 3.1 3.8
3 8 5 8.9 6.1
3 8 5 2.1 4.2
-3 -8 -6 32.2 6.8
3 8 6 13.3 6.1
3 8 6 33.6 7.8
3 8 6 24.8 6.3
3 8 7 29.6 8.8
3 8 8 29.3 9.3
3 8 9 19.6 8.4
3 8 10 16.3 8.3
-3 -7 11 -4 4
-3 -7 10 9.4 7
-3 -7 9 4.9 6.1
-3 -7 8 64.69 12.8
-3 -7 7 26.3 8.5
-3 -7 6 36.5 8.9
-3 -7 5 30.2 7.4
-3 -7 5 35.3 8.5
-3 -7 5 29.5 6
3 7 -5 35.8 7
3 7 -5 51.09 7.8
-3 -7 4 477.05 34.9
-3 -7 4 415.86 33.9
-3 -7 4 483.85 34.3
3 7 -4 456.65 33.4
3 7 -4 457.05 32.8
-3 -7 3 30.4 7
-3 -7 3 31.3 8.1
3 7 -3 31.9 8.5
3 7 -3 48 7
3 7 -3 29.8 6.6
-3 -7 2 162.98 12.6
-3 -7 2 126.09 15.4
3 7 -2 141.29 16.5
3 7 -2 145.69 14.2
3 7 -2 163.48 13.7
3 7 -2 146.59 16.4
-3 -7 1 46.6 10.1
-3 -7 1 34 5.8
3 7 -1 41 7.8
3 7 -1 51.19 10.5
3 7 -1 40.1 4.3
3 7 -1 37.1 6.5
3 7 -1 42.7 9.5
-3 -7 0 109.99 11.9
3 7 0 124.69 9.9
3 7 0 127.09 15
3 7 0 112.49 12.3
3 7 0 126.19 15.3
3 7 0 128.19 16.9
-3 -7 -1 26.4 7.2
-3 -7 -1 24.2 4.8
-3 -7 -1 34.2 8.9
3 7 1 31.8 5
3 7 1 24.3 7.2
3 7 1 35 9.5
3 7 1 26.9 5.5
-3 -7 -2 145.89 17.1
-3 -7 -2 151.08 13.2
3 7 2 162.28 13.6
3 7 2 138.09 16.4
3 7 2 153.78 13.2
3 7 2 145.69 15.9
-3 -7 -3 51.39 11.4
-3 -7 -3 25.5 5.5
3 7 3 32.7 6.3
3 7 3 25.4 6.7
3 7 3 41.8 6.5
3 7 3 20.3 6.6
-3 -7 -4 476.65 32.9
3 7 4 471.35 32.4
3 7 4 467.15 36.3
3 7 4 469.85 35.7
3 7 4 416.26 33.6
-3 -7 -5 33.9 6.4
3 7 5 40.6 5.7
3 7 5 33.7 8.3
3 7 5 54.49 9.4
3 7 5 29.5 6.6
-3 -7 -6 35.7 6.7
3 7 6 38.4 6.4
3 7 6 31.9 7.7
3 7 7 24.3 8.2
3 7 8 36.1 9.9
3 7 9 10.9 7
3 7 10 5.8 7.1
3 7 11 15.5 8.4
-3 -6 11 10.1 5.7
-3 -6 10 5.7 6.8
-3 -6 9 223.98 25
-3 -6 8 170.68 21.4
-3 -6 7 336.37 29
-3 -6 6 357.46 29.4
-3 -6 5 191.98 18.1
-3 -6 5 214.28 19
3 6 -5 179.88 15.8
3 6 -5 195.38 15.8
-3 -6 4 17.9 5
-3 -6 4 7.8 4.6
-3 -6 4 14.8 4.6
3 6 -4 18.4 4.3
3 6 -4 11.8 4.2
-3 -6 3 408.66 32.8
-3 -6 3 400.36 31.7
3 6 -3 450.95 31.9
3 6 -3 449.26 31
3 6 -3 497.95 34.8
-3 -6 2 89.19 8.6
-3 -6 2 92.99 12.5
3 6 -2 82.19 10.8
3 6 -2 103.99 12.5
3 6 -2 104.09 12.7
3 6 -2 90.19 10.1
-3 -6 1 935.41 63.89
-3 -6 1 995.6 67.89
3 6 -1 998.5 66.39
3 6 -1 1018.6 64.89
3 6 -1 992.3 62.19
3 6 -1 996.3 68.09
3 6 -1 998.2 68.49
-3 -6 0 98.99 9.7
3 6 0 105.39 9
3 6 0 136.69 14.5
3 6 0 115.29 11.8
3 6 0 118.69 13.6
3 6 0 127.69 14.2
-3 -6 -1 993.1 65.09
-3 -6 -1 923.71 60.59
-3 -6 -1 920.71 64.29
3 6 1 915.31 59.99
3 6 1 929.41 63.09
3 6 1 891.21 60.79
3 6 1 929.51 63.99
-3 -6 -2 105.69 12.4
-3 -6 -2 80.79 9
-3 -6 -2 90.49 12.5
3 6 2 97.89 9.9
3 6 2 61.29 9.6
3 6 2 95.09 11.5
3 6 2 90.29 9.7
-3 -6 -3 457.35 36.4
-3 -6 -3 509.55 33
3 6 3 488.45 32.8
3 6 3 491.35 36.3
3 6 3 420.36 35
3 6 3 481.15 33.6
-3 -6 -4 13.5 3.9
-3 -6 -4 14.2 5.5
3 6 4 15.4 4.8
3 6 4 11.3 5.2
3 6 4 22.4 4.3
3 6 4 19.9 5.6
-3 -6 -5 195.48 16
3 6 5 208.08 18.3
3 6 5 190.78 14.1
3 6 5 200.88 17
3 6 5 202.78 17.3
-3 -6 -6 338.97 23.9
3 6 6 293.67 26.2
3 6 7 323.47 27.6
3 6 8 142.39 18.9
3 6 9 257.67 28.1
3 6 10 29.8 10.2
3 6 11 31.1 10.6
-3 -5 12 7 5.3
-3 -5 11 3.2 5.2
-3 -5 10 26.4 8.2
-3 -5 9 3.7 5.2
-3 -5 8 50.49 10.9
-3 -5 7 19.9 6.5
-3 -5 6 24 6.8
-3 -5 5 61.19 9.6
-3 -5 5 58.09 5.4
3 5 -5 55.19 7.5
3 5 -5 65.99 7.5
-3 -5 4 194.78 17.8
-3 -5 4 208.78 17.3
-3 -5 4 202.08 15.9
3 5 -4 208.48 15.6
3 5 -4 194.18 16.1
-3 -5 3 25.3 5.6
-3 -5 3 29.3 6.4
3 5 -3 19.4 6.3
3 5 -3 36.2 5.3
3 5 -3 22.5 5
-3 -5 2 458.85 30.5
-3 -5 2 425.36 33.3
3 5 -2 461.55 34.3
3 5 -2 440.56 32.3
3 5 -2 442.76 31.2
3 5 -2 508.15 34.5
-3 -5 1 734.73 49.1
-3 -5 1 647.74 45.3
3 5 -1 668.73 47.2
3 5 -1 667.43 45.9
3 5 -1 781.62 49.3
3 5 -1 668.13 48.8
-3 -5 0 215.58 18.5
-3 -5 0 207.18 15.3
3 5 0 199.38 17.1
3 5 0 237.08 19.2
3 5 0 193.48 14.3
3 5 0 192.58 15.6
3 5 0 187.38 18.2
-3 -5 -1 722.23 46.3
-3 -5 -1 631.04 42.4
-3 -5 -1 618.44 45.5
3 5 1 649.54 45.6
3 5 1 624.64 42.1
3 5 1 611.74 44.4
3 5 1 622.24 45.6
3 5 1 662.33 42.9
-3 -5 -2 384.76 31.8
-3 -5 -2 419.86 32.1
-3 -5 -2 451.65 29.3
3 5 2 443.06 29.6
3 5 2 473.25 32.8
3 5 2 428.86 31.3
3 5 2 429.96 29.2
3 5 2 371.66 30.8
-3 -5 -3 26.1 6.7
-3 -5 -3 24.3 4.5
-3 -5 -3 24.8 7.9
3 5 3 30.7 7.5
3 5 3 33.5 5.8
3 5 3 33.9 7
3 5 3 29.9 4.8
-3 -5 -4 172.18 18.6
-3 -5 -4 189.48 15.4
3 5 4 208.78 18.1
3 5 4 200.08 14.7
3 5 4 217.48 17.3
3 5 4 211.98 17.2
-3 -5 -5 59.79 7.4
3 5 5 60.89 7
3 5 5 59.79 9.5
3 5 5 65.69 7.6
-3 -5 -6 39.2 6.1
3 5 6 28.9 7.4
3 5 7 17 6.9
3 5 8 71.09 12.4
3 5 9 -2.3 4.2
3 5 10 22.8 9.2
3 5 11 3.5 6
3 5 12 33.7 11.8
-3 -4 12 -1.1 4.1
-3 -4 11 7 6.4
-3 -4 10 4.1 5.5
-3 -4 9 39.2 10.2
-3 -4 8 32.2 8.6
-3 -4 7 255.57 23.3
-3 -4 7 282.77 20.6
-3 -4 6 58.79 6.7
-3 -4 6 54.79 9.3
-3 -4 5 481.25 30
-3 -4 5 441.26 33.3
3 4 -5 441.86 30.2
3 4 -5 445.66 31.2
-3 -4 4 29.7 6.6
-3 -4 4 31.8 6.1
-3 -4 4 30.4 3.3
3 4 -4 23.1 4
3 4 -4 26.4 4.9
-3 -4 3 1407.46 89.69
-3 -4 3 1358.36 88.59
3 4 -3 1408.96 87.49
3 4 -3 1300.67 89.59
3 4 -3 1448.56 88.69
-3 -4 2 37.4 6.4
-3 -4 2 34.6 4.3
-3 -4 2 34.1 5.9
3 4 -2 49.99 8.3
3 4 -2 32.6 5.6
3 4 -2 33.5 4.7
3 4 -2 31.4 6
-3 -4 1 153.78 13.5
-3 -4 1 134.19 10.6
3 4 -1 138.59 13.3
3 4 -1 147.49 13.4
3 4 -1 118.69 10.9
3 4 -1 136.49 12.1
-3 -4 0 287.07 19.7
-3 -4 0 289.97 22.5
3 4 0 251.27 20.8
3 4 0 289.97 20
3 4 0 281.57 18.9
-3 -4 -1 129.89 13
-3 -4 -1 145.69 10.9
3 4 1 132.69 13.2
3 4 1 142.59 10.8
3 4 1 127.89 12.1
3 4 1 139.99 13
3 4 1 129.09 10.9
-3 -4 -2 39.8 7.5
-3 -4 -2 36.2 7.6
-3 -4 -2 35 4.8
3 4 2 33.8 6.3
3 4 2 34.9 6.5
3 4 2 32.2 4.7
3 4 2 32.9 6.2
3 4 2 42.8 5.5
-3 -4 -3 1395.46 93.79
-3 -4 -3 1512.25 91.29
3 4 3 1439.56 92.49
3 4 3 1432.36 93.59
3 4 3 1487.15 90.89
3 4 3 1374.66 92.69
-3 -4 -4 32 4.7
3 4 4 25.9 3.4
3 4 4 28.5 5.8
3 4 4 37.2 6.4
3 4 4 23.3 4.8
-3 -4 -5 469.85 31.4
3 4 5 459.25 34
-3 -4 -6 50.09 6.5
3 4 6 65.69 10
3 4 7 262.57 22.9
3 4 8 26.5 8
3 4 9 58.49 11.7
3 4 10 -2.9 5.1
3 4 11 18.8 8.7
3 4 12 10.5 8.4
-3 -3 12 9.1 5.6
-3 -3 11 14.9 6.6
-3 -3 10 22.2 7.2
-3 -3 9 -4 4.6
-3 -3 8 242.88 19.4
-3 -3 8 229.88 21.6
-3 -3 7 138.89 15.9
-3 -3 7 117.89 13.3
-3 -3 7 119.69 11.3
-3 -3 6 -2.1 2.6
-3 -3 6 1.7 2.4
-3 -3 6 -1.2 2.7
3 3 -6 -1.3 2.1
-3 -3 5 194.48 16.5
-3 -3 5 205.08 17.8
-3 -3 5 218.18 15.4
3 3 -5 223.48 15.9
3 3 -5 198.58 14.1
-3 -3 4 58.99 5.2
-3 -3 4 52.39 7.3
-3 -3 4 57.19 7.9
3 3 -4 50.39 4.9
3 3 -4 64.09 7.2
-3 -3 3 28.6 5.9
-3 -3 3 21 4.1
-3 -3 3 32.6 3.2
3 3 -3 29.9 4.8
3 3 -3 31.4 3.8
3 3 -3 24.1 4.9
-3 -3 2 375.36 23.3
-3 -3 2 322.37 24.9
-3 -3 2 352.26 25.3
3 3 -2 347.57 23.8
3 3 -2 362.56 24.9
3 3 -2 349.37 25.6
3 3 -2 389.26 26.1
-3 -3 1 7.2 3.3
-3 -3 1 10.2 2.3
-3 -3 1 6.9 3
3 3 -1 10.2 4.1
3 3 -1 10.5 4
3 3 -1 8.3 2.9
3 3 -1 10.9 2.5
-3 -3 0 988.5 67.79
-3 -3 0 956 65.59
3 3 0 972.5 67.89
3 3 0 1049.99 67.09
3 3 0 1139.09 65.19
3 3 0 1121.19 66.19
-3 -3 -1 6.1 2.2
-3 -3 -1 8.7 3.2
-3 -3 -1 10.9 4.5
3 3 1 5.9 2.9
3 3 1 6.3 2.1
3 3 1 7.7 4.8
3 3 1 6.8 2.3
3 3 1 10.5 3.6
-3 -3 -2 393.16 26.9
-3 -3 -2 375.46 24.3
-3 -3 -2 336.57 25.9
3 3 2 354.16 24
3 3 2 339.17 25.6
3 3 2 337.27 25.6
3 3 2 364.16 26.6
3 3 2 381.96 25
-3 -3 -3 36.3 6.4
-3 -3 -3 38 6.4
-3 -3 -3 42 4.8
3 3 3 33 5.4
3 3 3 28.9 5.6
3 3 3 32.7 3.9
3 3 3 34.3 5.5
3 3 3 27.2 5.3
-3 -3 -4 51.29 5.8
3 3 4 61.69 8.2
-3 -3 -5 208.08 15.6
3 3 5 240.18 18.7
-3 -3 -6 -1 1.8
3 3 6 1.1 3.1
3 3 7 153.18 17.2
3 3 8 264.47 23.6
3 3 9 -3.9 4
3 3 10 73.89 13.8
3 3 11 47.6 12.5
3 3 12 29.6 10.6
-3 -2 12 8.6 6.9
-3 -2 11 14.1 7.3
-3 -2 10 5.4 4.9
-3 -2 10 7.1 5.9
-3 -2 9 13.4 5.4
-3 -2 9 5.8 5
-3 -2 9 6.7 4.9
-3 -2 8 33.9 8.2
-3 -2 8 27.1 6.5
-3 -2 8 37.3 7
-3 -2 7 120.49 14.4
-3 -2 7 126.09 13.5
-3 -2 7 110.29 12.2
-3 -2 6 46.5 8.3
-3 -2 6 50.79 7.6
-3 -2 6 40.4 6.2
3 2 -6 44.8 6.5
-3 -2 5 215.18 16.7
-3 -2 5 216.08 15.6
-3 -2 5 189.28 16.9
3 2 -5 200.88 15.6
-3 -2 4 116.19 9.2
-3 -2 4 113.59 10.2
-3 -2 4 104.99 10.3
3 2 -4 118.09 9.9
-3 -2 3 121.89 9.2
-3 -2 3 135.09 10.6
-3 -2 3 121.59 10.4
3 2 -3 131.69 10.5
3 2 -3 125.29 10
-3 -2 2 1178.28 73.09
-3 -2 2 1084.49 71.69
3 2 -2 1167.28 72.39
3 2 -2 1092.49 71.99
3 2 -2 1117.09 70.69
3 2 -2 1146.59 72.09
-3 -2 1 200.68 15.3
-3 -2 1 218.98 13.9
-3 -2 1 191.68 14.3
-3 -2 1 197.58 15.3
-3 -2 1 205.88 15.2
3 2 -1 201.58 14
3 2 -1 219.08 15.8
3 2 -1 211.08 15.1
3 2 -1 193.58 15.4
-3 -2 0 1833.62 113.19
-3 -2 0 1661.73 111.09
3 2 0 2051.39 112.59
3 2 0 1624.74 110.79
-3 -2 -1 212.98 14.6
-3 -2 -1 196.58 16
-3 -2 -1 213.78 16.3
3 2 1 211.48 15.9
3 2 1 210.18 15.6
3 2 1 216.58 14.6
3 2 1 209.08 16.4
3 2 1 208.48 14.6
-3 -2 -2 1009.4 71.19
-3 -2 -2 1137.69 69.89
-3 -2 -2 1153.88 72.09
3 2 2 1126.49 71.39
3 2 2 1160.68 69.69
3 2 2 1105.79 70.59
3 2 2 1128.39 71.29
3 2 2 1062.79 70.89
-3 -2 -3 111.49 10.6
-3 -2 -3 123.49 9.3
-3 -2 -3 132.49 11.4
3 2 3 122.79 10.7
3 2 3 133.79 10.9
3 2 3 123.29 9.8
3 2 3 130.19 8.5
3 2 3 128.99 10
-3 -2 -4 118.79 9
3 2 4 128.09 11.3
-3 -2 -5 221.08 14.7
3 2 5 214.18 17.8
3 2 5 207.48 14.8
-3 -2 -6 50.59 4.9
3 2 6 56.39 8.6
3 2 6 54.89 5.9
3 2 7 147.29 14.1
3 2 7 124.99 15.5
3 2 8 20.2 7.1
3 2 8 28.2 7.3
3 2 9 13 6.6
3 2 9 -0.5 4.9
3 2 10 16 6.9
3 2 11 22.3 8.2
3 2 12 31 10.8
-3 -1 12 -2.1 5.5
-3 -1 11 25.7 8.4
-3 -1 11 23.3 7.7
-3 -1 10 5.3 5.3
-3 -1 10 5.1 5.5
-3 -1 9 47.6 8.5
-3 -1 9 38.1 9.7
-3 -1 9 66.39 9.9
-3 -1 8 15.9 4.8
-3 -1 8 21.6 6.6
-3 -1 8 21 5.8
-3 -1 7 123.19 14.2
-3 -1 7 89.19 11.2
-3 -1 7 106.89 11.8
-3 -1 6 4.1 3.4
-3 -1 6 2.8 2.7
-3 -1 6 5.6 3.2
3 1 -6 2.9 3
-3 -1 5 447.06 31.2
-3 -1 5 439.46 30.4
-3 -1 5 422.76 29.9
3 1 -5 428.36 30.2
-3 -1 4 566.34 37.4
-3 -1 4 557.44 38
-3 -1 4 576.44 38.4
3 1 -4 566.74 38
-3 -1 3 142.89 10.4
-3 -1 3 128.59 10.9
-3 -1 3 135.59 11.2
3 1 -3 149.79 11.4
-3 -1 2 2401.56 155.88
-3 -1 2 2411.16 156.78
3 1 -2 2725.53 156.58
-3 -1 1 24 3.7
-3 -1 1 23.6 2.4
-3 -1 1 24.3 3.3
3 1 -1 14.3 2.8
3 1 -1 19.9 3.5
-3 -1 0 22.8 2.6
-3 -1 0 39 6.8
-3 -1 0 17.5 2.5
3 1 0 11.7 3.1
3 1 0 25.8 2.7
3 1 0 19 3.2
-3 -1 -1 18 2.6
-3 -1 -1 11.9 2.5
-3 -1 -1 13.1 2.9
3 1 1 21.6 2.7
3 1 1 25 4.2
3 1 1 23.1 3.8
3 1 1 17.9 2.4
-3 -1 -2 2337.97 144.89
-3 -1 -2 2262.17 144.89
-3 -1 -2 2281.27 143.59
3 1 2 2381.16 144.49
3 1 2 2305.87 144.49
3 1 2 2277.27 144.39
3 1 2 2362.36 143.39
-3 -1 -3 128.29 10.7
-3 -1 -3 125.59 10.8
-3 -1 -3 142.59 9.6
3 1 3 154.18 11.5
3 1 3 147.99 10.9
-3 -1 -4 576.24 35.7
3 1 4 560.54 35.7
3 1 4 549.35 38.2
3 1 4 560.64 38
-3 -1 -5 461.55 28.6
3 1 5 428.06 31.8
3 1 5 443.76 28.9
3 1 5 439.26 31.7
3 1 6 4.7 3.3
3 1 6 1.8 1.8
3 1 6 0.8 3.1
3 1 7 105.19 13.7
3 1 7 119.49 14.3
3 1 8 15.4 5.8
3 1 8 25.8 7.7
3 1 9 48.2 10.5
3 1 9 77.39 12.3
3 1 10 14.4 7.5
3 1 10 33.5 9.6
3 1 11 54.39 12.1
3 1 11 35.9 10.8
3 1 12 6.2 7.6
3 1 12 13.9 9.1
-3 0 12 -3.5 4.6
-3 0 12 -2.6 4.8
-3 0 11 8.2 6.6
-3 0 11 21.8 7.9
-3 0 10 -1.4 4
-3 0 10 -8.1 4.8
-3 0 9 -2 3.8
-3 0 9 -2.3 4.5
-3 0 9 2.4 4
-3 0 8 -0.2 3.6
-3 0 8 -1.9 3.6
-3 0 8 1.1 3.6
-3 0 7 -2 3.2
-3 0 7 1.2 3.3
-3 0 7 0.2 3.1
3 0 -7 -1.9 2.8
-3 0 6 0.5 2.6
-3 0 6 1.4 2.9
-3 0 6 -1.7 2.1
3 0 -6 0.8 2.8
-3 0 5 0.4 2.7
-3 0 5 2.7 2.8
-3 0 5 -1.1 2.1
3 0 -5 -2.1 2.4
-3 0 4 0.2 1.9
-3 0 4 2.8 2.2
-3 0 4 -1 1.8
3 0 -4 0.4 2.3
-3 0 3 0.3 1.7
-3 0 3 2.1 1.6
-3 0 3 -0.4 1.4
3 0 -3 0.6 2.3
-3 0 2 0.1 1.2
-3 0 2 0.7 1.8
-3 0 2 2 1.2
3 0 -2 0.4 1.3
-3 0 1 -0.9 0.8
-3 0 1 2.2 1.4
3 0 -1 1.9 1.8
-3 0 0 -2.2 1.1
-3 0 0 -0.5 1.8
3 0 0 -3 1.5
-3 0 -1 1.6 1
-3 0 -1 -0.5 1
-3 0 -1 1.1 1.5
3 0 1 -0.5 0.8
3 0 1 0.3 1
3 0 1 -1.5 0.6
3 0 1 0.8 1.5
-3 0 -2 -1.1 0.8
-3 0 -2 0.7 1.5
-3 0 -2 -0.3 1.3
3 0 2 -0.7 0.7
3 0 2 1.6 1.6
3 0 2 2.5 1.8
3 0 2 1.8 1.4
3 0 2 0.5 1.3
-3 0 -3 -1.5 1.2
-3 0 -3 -0.2 1.4
-3 0 -3 0.6 0.9
3 0 3 -0.2 1.8
3 0 3 1 1.6
-3 0 -4 -0.2 0.8
3 0 4 -0.2 2.2
3 0 4 0.5 2
3 0 5 1.3 2.7
3 0 5 0.4 2.8
3 0 6 2.1 2.5
3 0 6 1 2.8
3 0 7 -1.6 3.1
3 0 7 -2.2 3
3 0 8 5.8 4.5
3 0 8 -1.6 3.4
3 0 9 -1.2 4.3
3 0 9 3.6 4.4
3 0 10 -1.2 4.7
3 0 10 5.2 6.1
3 0 11 12.2 7
3 0 11 18.2 7.8
3 0 12 4.4 6.5
3 0 12 5.5 7.3
-3 1 12 10.9 6.7
-3 1 12 17.3 8.3
-3 1 11 57.69 11.3
-3 1 11 55.49 12.1
-3 1 10 19.6 7.2
-3 1 10 10.6 6.5
-3 1 9 73.19 11.8
-3 1 9 91.49 13.1
-3 1 9 70.99 10.6
-3 1 8 19.6 6.2
-3 1 8 18 5.7
-3 1 8 19.5 6.2
-3 1 7 125.29 13.3
-3 1 7 73.29 10.7
-3 1 7 105.99 12
3 -1 -7 88.39 12
-3 1 6 3.8 3.2
-3 1 6 -0.2 2.6
-3 1 6 3.9 3.1
3 -1 -6 4.9 3.7
-3 1 5 423.16 30.2
-3 1 5 430.16 30.6
-3 1 5 443.66 30.6
3 -1 -5 436.96 31.4
-3 1 4 578.44 38.9
-3 1 4 557.44 38.5
3 -1 -4 605.54 40.1
-3 1 3 139.99 10.9
-3 1 3 143.29 11.3
3 -1 -3 152.48 12.7
-3 1 2 2437.96 153.28
-3 1 2 2559.14 152.68
3 -1 -2 2330.87 152.98
3 -1 -2 2499.65 154.98
3 -1 -2 2488.45 152.08
-3 1 1 21.2 3.2
-3 1 1 26.2 2.9
-3 1 1 20.8 2.4
3 -1 -1 14.2 2.6
-3 1 0 24.3 2.9
-3 1 0 40.2 4.9
3 -1 0 20.4 3.4
-3 1 -1 29.7 4.4
-3 1 -1 22.7 2.8
3 -1 1 18.2 3.3
3 -1 1 17.3 2.6
-3 1 -2 2421.36 145.89
-3 1 -2 2217.38 146.89
3 -1 2 2394.46 146.89
3 -1 2 2346.87 146.69
3 -1 2 2378.66 146.19
3 -1 2 2352.86 146.79
-3 1 -3 130.59 10.9
-3 1 -3 138.99 9.5
3 -1 3 139.09 11.3
3 -1 3 127.09 10.3
-3 1 -4 557.84 35.6
3 -1 4 564.04 37.7
3 -1 4 568.44 38.6
-3 1 -5 453.75 29.3
3 -1 5 418.26 31.2
3 -1 5 470.05 32.5
3 -1 6 5.5 3.3
3 -1 6 -1.5 3.1
3 -1 7 112.39 13.3
3 -1 7 123.59 14.8
3 -1 8 18.9 5.9
3 -1 8 17.1 6.1
3 -1 9 53.79 10
3 -1 9 46 10.3
3 -1 10 15.5 7.5
3 -1 10 18.9 7.6
3 -1 11 44.9 10.7
3 -1 11 46.1 11.4
3 -1 12 14.9 7.9
3 -1 12 5.9 7.3
-3 2 12 17.7 7.9
-3 2 11 17.4 8.1
-3 2 11 15.6 7.3
-3 2 10 4.2 5.6
-3 2 10 7.7 5.2
-3 2 9 4.3 4.9
-3 2 9 6.4 5
-3 2 9 1.9 4.3
-3 2 8 25.7 6.9
-3 2 8 23 6.4
-3 2 8 39.2 8.2
3 -2 -8 29.7 7.8
-3 2 7 120.99 13.5
-3 2 7 120.19 14.3
-3 2 7 125.39 13.9
3 -2 -7 139.99 16
-3 2 6 53.09 7.6
-3 2 6 44.4 7.6
-3 2 6 50.79 7.5
3 -2 -6 54.39 9.2
-3 2 5 213.18 16.6
-3 2 5 215.88 17.5
3 -2 -5 219.88 18.7
-3 2 4 127.79 11.4
-3 2 4 132.19 10.5
3 -2 -4 119.89 13.8
-3 2 3 129.59 10.9
-3 2 3 122.39 9.7
3 -2 -3 139.29 9.1
-3 2 2 1152.98 71.79
-3 2 2 1105.79 72.99
-3 2 2 1206.98 71.99
-3 2 2 1218.88 73.29
-3 2 2 1164.48 73.19
3 -2 -2 1183.28 72.19
3 -2 -2 1052.09 73.49
-3 2 1 208.78 13.8
-3 2 1 198.88 14.9
-3 2 1 196.48 13.5
3 -2 -1 182.88 14.8
-3 2 0 2382.16 135.99
-3 2 0 2186.18 134.19
3 -2 0 2261.57 136.09
3 -2 0 1818.22 133.39
-3 2 -1 197.98 15.7
-3 2 -1 226.58 14.6
3 -2 1 191.78 15.7
3 -2 1 217.68 14.6
-3 2 -2 1248.08 73.49
-3 2 -2 1090.19 74.69
3 -2 2 1199.38 74.39
3 -2 2 1168.98 73.19
3 -2 2 1133.89 74.59
-3 2 -3 134.49 9.7
-3 2 -3 121.19 11.2
3 -2 3 125.59 10.1
3 -2 3 132.09 10
3 -2 3 142.79 10.3
3 -2 3 147.89 11.6
3 -2 3 123.39 8.6
-3 2 -4 126.09 9.1
3 -2 4 119.59 11.6
3 -2 4 120.99 10.3
-3 2 -5 199.28 14.4
3 -2 5 211.78 17.8
3 -2 5 230.88 16.7
-3 2 -6 43.4 4.6
3 -2 6 42.1 8.1
3 -2 6 54.99 7.7
3 -2 7 131.49 14.1
3 -2 7 120.99 15.3
3 -2 8 35.3 8.9
3 -2 8 26.9 7
3 -2 9 22.7 7
3 -2 9 4.6 5.2
3 -2 10 11.8 6.8
3 -2 10 5.4 5.5
3 -2 11 14.7 7.5
3 -2 11 22.7 8.2
3 -2 12 5.8 7.3
-3 3 12 35.4 10.6
-3 3 11 23.1 8.2
-3 3 10 68.69 11.6
-3 3 10 53.69 11.5
-3 3 9 5.4 5.2
-3 3 9 -0.1 4
-3 3 8 265.57 22.4
-3 3 8 274.77 23
-3 3 8 294.77 24.3
3 -3 -8 283.57 25.4
-3 3 7 145.89 13.4
3 -3 -7 126.79 16.8
-3 3 6 3.3 2.9
-3 3 6 0 2.4
3 -3 -6 1.7 3.6
-3 3 5 220.08 17.9
-3 3 5 215.88 16.2
3 -3 -5 212.18 14.6
-3 3 4 49 5.6
-3 3 4 63.39 7.9
3 -3 -4 51.79 4.8
-3 3 3 24.4 4.6
-3 3 3 35.6 4.6
-3 3 3 30.2 2.7
-3 3 3 34.6 4.7
3 -3 -3 41.4 4.2
-3 3 2 365.76 24.8
-3 3 2 373.76 25.7
-3 3 2 373.86 23.9
-3 3 2 375.46 25.7
3 -3 -2 305.57 25.5
3 -3 -2 384.26 24.1
-3 3 1 10.5 2.6
-3 3 1 9.1 2.3
-3 3 1 7.9 3.2
3 -3 -1 6.7 3.7
-3 3 0 1076.39 77.19
-3 3 0 1442.06 79.99
3 -3 0 1089.49 76.39
3 -3 0 1312.57 79.49
-3 3 -1 9.4 3.5
-3 3 -1 8 2.4
3 -3 1 11.1 4.3
3 -3 1 12 2.7
-3 3 -2 367.56 24.3
-3 3 -2 371.56 26.4
3 -3 2 370.96 25.1
3 -3 2 338.07 25.7
-3 3 -3 29.1 6
-3 3 -3 27.7 4.1
3 -3 3 37.2 5.7
3 -3 3 42.6 6.2
3 -3 3 30.8 4
-3 3 -4 47.1 5.6
3 -3 4 65.09 6.7
3 -3 4 53.79 8
-3 3 -5 213.98 14.7
3 -3 5 196.88 17.6
3 -3 5 192.48 15.6
-3 3 -6 -0.8 1.7
3 -3 6 0.3 2.4
3 -3 6 2 3.4
3 -3 7 120.69 15.6
3 -3 7 129.39 13.9
3 -3 8 271.87 22.7
3 -3 8 288.27 25.2
3 -3 9 -5.8 3.5
3 -3 9 -5.1 3.8
3 -3 10 41.3 10.2
3 -3 11 19.4 8.6
3 -3 12 39 11.5
-3 4 12 4.9 5.7
-3 4 11 21.8 8.3
-3 4 10 1.9 5.4
-3 4 9 65.49 12
-3 4 8 30 8
3 -4 -8 58.99 12
-3 4 7 252.17 21.8
-3 4 6 56.59 8.8
-3 4 5 467.25 34.3
3 -4 -5 485.85 31.6
-3 4 4 26.3 5.4
3 -4 -4 26.6 3.9
-3 4 3 1455.05 91.89
-3 4 3 1452.95 92.09
-3 4 3 1452.45 89.99
-3 4 3 1383.16 91.99
3 -4 -3 1432.26 90.49
-3 4 2 28 4.3
-3 4 2 33.7 6.2
-3 4 2 35.5 6.3
-3 4 2 28.1 4.5
3 -4 -2 40.5 7.1
3 -4 -2 37 4.7
-3 4 1 140.39 13.5
-3 4 1 137.29 11.4
-3 4 1 143.59 11
3 -4 -1 168.08 14.3
3 -4 -1 133.39 11
-3 4 0 367.36 25.2
-3 4 0 297.67 22.3
3 -4 0 284.57 21.1
3 -4 0 354.56 25
-3 4 -1 179.58 15.1
-3 4 -1 132.29 11.9
3 -4 1 165.78 14.4
3 -4 1 138.69 11.7
-3 4 -2 35.7 5.1
-3 4 -2 37.4 6.7
3 -4 2 31.8 6.3
3 -4 2 34.9 5.4
-3 4 -3 1311.97 88.69
-3 4 -3 1348.27 91.19
3 -4 3 1396.46 90.49
3 -4 3 1467.95 90.39
3 -4 3 1473.65 87.89
-3 4 -4 26.9 4.6
3 -4 4 34.7 4.6
3 -4 4 25.1 5.6
3 -4 4 31.3 5.2
-3 4 -5 456.85 31.8
3 -4 5 467.15 34.8
3 -4 5 493.35 32.3
-3 4 -6 58.89 7
3 -4 6 55.39 7.4
3 -4 6 41.7 8.8
3 -4 7 256.07 22.3
3 -4 7 234.88 19.4
3 -4 8 31.1 6.5
3 -4 8 22.8 8
3 -4 9 32.9 9.4
3 -4 10 7.5 6.7
3 -4 11 10.4 6
3 -4 12 0.2 6.1
-3 5 12 21.8 9.4
-3 5 11 3.5 6.2
-3 5 10 35.5 9.8
-3 5 9 -0.7 4.1
3 -5 -9 0.4 6.9
-3 5 8 61.39 11.6
-3 5 7 13.2 5.2
-3 5 6 26 6.1
-3 5 5 54.49 8.6
3 -5 -5 57.89 6.7
-3 5 4 223.98 16.9
-3 5 4 205.48 17.2
-3 5 4 198.98 16.9
-3 5 4 212.48 14.3
3 -5 -4 200.18 15.6
-3 5 3 35 4.7
-3 5 3 32.7 6.6
-3 5 3 26.6 6
-3 5 3 27 5.2
3 -5 -3 25.6 4.5
-3 5 2 434.56 30.1
-3 5 2 410.26 32.4
-3 5 2 430.46 30.3
-3 5 2 432.16 32.8
3 -5 -2 508.95 34
3 -5 -2 446.86 30.1
-3 5 1 803.42 50.19
-3 5 1 670.63 45.7
-3 5 1 661.23 46.4
3 -5 -1 597.54 45.8
3 -5 -1 813.12 50.09
-3 5 0 202.08 17.4
-3 5 0 246.98 20.5
3 -5 0 224.28 16.4
3 -5 0 288.87 21.6
-3 5 -1 697.73 45
-3 5 -1 637.84 47.4
3 -5 1 669.73 44.3
3 -5 1 696.53 47.4
-3 5 -2 434.06 30.1
-3 5 -2 426.26 32.9
3 -5 2 431.76 32.4
3 -5 2 445.26 30.5
-3 5 -3 29.8 7.2
-3 5 -3 44.3 6
3 -5 3 32 3.8
3 -5 3 29.2 6.8
3 -5 3 23.8 5.4
-3 5 -4 169.68 14.4
-3 5 -4 149.59 17.4
3 -5 4 187.48 14.2
3 -5 4 208.28 16.7
3 -5 4 193.08 15.9
3 -5 4 192.88 13.5
-3 5 -5 64.09 7.7
3 -5 5 50.19 8.9
3 -5 5 58.89 6.6
3 -5 5 62.99 7.1
-3 5 -6 25.1 5.3
3 -5 6 37.7 6
3 -5 6 37.2 8.3
3 -5 7 22.9 7.4
3 -5 8 61.69 12.1
3 -5 9 8.9 6.4
3 -5 10 26.5 9
3 -5 11 6.4 6.6
3 -5 12 22.1 8.9
-3 6 11 15.3 7.5
-3 6 10 16.7 7.9
-3 6 9 270.17 26
3 -6 -9 321.07 34.8
-3 6 8 162.48 19.6
-3 6 7 382.26 30.8
-3 6 6 303.27 25
-3 6 5 208.48 18
-3 6 5 203.48 16
-3 6 5 213.98 16.1
3 -6 -5 170.48 15.4
-3 6 4 17 5.5
-3 6 4 21.9 5.3
-3 6 4 14.8 3.1
-3 6 4 15.3 4.9
3 -6 -4 19.4 4.2
-3 6 3 514.25 36.1
-3 6 3 445.76 33
-3 6 3 447.86 35
-3 6 3 472.65 32.3
3 -6 -3 485.95 32.6
-3 6 2 86.49 12.7
-3 6 2 93.19 8.9
-3 6 2 101.39 11.8
-3 6 2 89.29 9.7
3 -6 -2 106.49 14.9
3 -6 -2 74.79 8.9
-3 6 1 1076.09 69.49
-3 6 1 894.91 65.49
-3 6 1 1022.6 64.69
3 -6 -1 1052.89 69.19
3 -6 -1 982 65.29
-3 6 0 141.69 15.8
-3 6 0 125.79 11.4
3 -6 0 109.79 13.7
-3 6 -1 943.01 63.89
-3 6 -1 979.7 67.29
3 -6 1 999.4 63.29
-3 6 -2 118.89 15.5
-3 6 -2 91.69 9.9
3 -6 2 92.69 9.9
3 -6 2 61.49 10
-3 6 -3 466.95 31
-3 6 -3 402.36 33.7
3 -6 3 442.36 31.7
3 -6 3 429.16 33.1
-3 6 -4 21.4 4.9
-3 6 -4 21.2 7.3
3 -6 4 17 3.1
3 -6 4 22.3 4.3
3 -6 4 13.3 5.1
3 -6 4 10.9 4.4
-3 6 -5 199.98 16.6
3 -6 5 239.08 16.8
3 -6 5 198.18 18.6
3 -6 5 193.08 17
-3 6 -6 335.47 24.7
3 -6 6 308.17 26.7
3 -6 7 290.37 25.9
3 -6 8 155.68 19.7
3 -6 9 195.88 23.4
3 -6 10 4.7 7.2
3 -6 11 20.3 8
-3 7 11 10.7 7.5
-3 7 10 12.8 7
-3 7 9 5 5.6
-3 7 8 74.89 13
-3 7 7 34.8 8.3
-3 7 6 25.4 6.7
-3 7 5 39.6 7.4
-3 7 5 39 7.7
-3 7 5 45.4 7.9
-3 7 5 41.1 4.7
3 -7 -5 29.4 5.9
-3 7 4 464.35 36.2
-3 7 4 491.65 32.6
-3 7 4 488.25 35.9
-3 7 4 423.06 34
3 -7 -4 500.85 33.6
-3 7 3 40.3 8.9
-3 7 3 53.69 7.1
-3 7 3 43 9
-3 7 3 20.8 5.4
3 -7 -3 27 5.3
-3 7 2 122.09 15.2
-3 7 2 151.48 15.7
-3 7 2 150.28 13.1
-3 7 2 135.79 12.2
3 -7 -2 142.59 12.7
3 -7 -2 167.28 20.7
-3 7 1 42.6 5.9
-3 7 1 34 6.3
-3 7 1 33.1 8
-3 7 1 46.1 9.8
3 -7 -1 40.7 9.4
-3 7 0 131.69 15
-3 7 0 108.49 11.9
3 -7 0 95.19 13.9
-3 7 -1 19.4 6.6
-3 7 -1 39.2 6.4
3 -7 1 29.3 5.3
3 -7 1 45.2 9.8
-3 7 -2 157.08 13
-3 7 -2 135.49 16.4
3 -7 2 141.39 12.7
3 -7 2 114.09 14.6
-3 7 -3 37.2 10.6
-3 7 -3 40.3 6.9
3 -7 3 29.8 7.9
3 -7 3 47.8 8
-3 7 -4 407.46 31.2
3 -7 4 406.46 30
3 -7 4 475.55 33.1
3 -7 4 455.35 33.9
-3 7 -5 26.7 6.1
3 -7 5 38.1 8
3 -7 5 32.7 7.1
-3 7 -6 49.1 8.2
3 -7 6 35.9 8.7
3 -7 7 31.4 9.1
3 -7 8 83.49 14.8
3 -7 9 10 7.5
3 -7 10 15.4 8.6
3 -7 11 -1.3 6.1
-3 8 11 -2.3 5
-3 8 10 11.7 7.2
-3 8 9 15.8 7.5
-3 8 8 21.4 7.6
-3 8 7 38.5 9
-3 8 6 38.5 8.3
-3 8 6 29 6.1
-3 8 5 6.2 2.7
-3 8 5 3 3.8
-3 8 5 6.9 4.6
-3 8 5 13.9 5.6
3 -8 -5 9.8 4
-3 8 4 0.5 2.3
-3 8 4 1.2 3.6
-3 8 4 0.6 3
-3 8 4 0.4 3.6
3 -8 -4 -0.1 2.9
-3 8 3 34.4 8.6
-3 8 3 41.7 9.8
-3 8 3 25.4 5.7
-3 8 3 34.7 6.3
3 -8 -3 35.6 6.5
-3 8 2 43.9 9.6
-3 8 2 54.99 11.3
-3 8 2 39.8 6.5
-3 8 2 49.8 7.7
3 -8 -2 51.99 7.7
-3 8 1 89.99 11.6
-3 8 1 103.49 15.4
-3 8 1 98.09 14.7
-3 8 1 109.19 9.5
3 -8 -1 92.09 16
-3 8 0 3.4 4.4
-3 8 0 3.2 3.2
3 -8 0 4.9 5.2
-3 8 -1 110.49 16.5
-3 8 -1 106.49 12.1
3 -8 1 124.09 10.7
3 -8 1 74.69 13.7
-3 8 -2 43.7 7.6
3 -8 2 41.3 8.7
3 -8 2 49.9 8
-3 8 -3 43.1 7.4
3 -8 3 43.7 8.1
3 -8 3 22.9 7.1
-3 8 -4 2 3.2
3 -8 4 -4.1 2.9
3 -8 4 -0.6 3
-3 8 -5 10.1 4.5
3 -8 5 7.3 4.6
3 -8 5 -0.6 4.1
-3 8 -6 33.9 7.2
3 -8 6 26.9 6.3
3 -8 6 22.1 7.1
3 -8 7 32.8 9.8
3 -8 8 14.1 7.6
3 -8 9 13.1 8.2
3 -8 10 10.6 8.7
3 -8 11 -0.1 6.3
-3 9 10 20.9 8.6
-3 9 9 -1.5 5
-3 9 8 7.4 6.2
-3 9 7 13 6.2
-3 9 6 16.3 5.6
-3 9 6 8.9 5.5
-3 9 6 11.4 5.2
-3 9 5 9.5 5.6
-3 9 5 14.1 3.9
-3 9 5 22.7 7.4
-3 9 5 22.6 6.3
3 -9 -5 22.5 6.2
-3 9 4 4.4 4
-3 9 4 5.6 3.6
-3 9 4 5.5 4.1
-3 9 4 4.5 5.5
3 -9 -4 2.3 3.5
-3 9 3 13 4.8
-3 9 3 4.7 4.2
-3 9 3 12.5 4.6
-3 9 3 14.7 6.3
3 -9 -3 9.2 4.2
-3 9 2 35.7 9.6
-3 9 2 49.4 7.1
-3 9 2 49 8.1
3 -9 -2 40.1 7.2
-3 9 1 27.3 6.5
-3 9 1 21.2 7.8
-3 9 1 42.8 6.2
-3 9 0 72.59 10.5
3 -9 0 60.89 8
-3 9 -1 27 6.7
3 -9 1 24.3 5.6
-3 9 -2 34.8 7.1
3 -9 2 43.3 8
-3 9 -3 11.3 5.1
3 -9 3 6.7 4.6
-3 9 -4 1 3.6
3 -9 4 -2.3 4.3
3 -9 4 8.5 5.3
-3 9 -5 14.8 6.1
3 -9 5 9.1 5.7
3 -9 5 19.5 6.8
-3 9 -6 16.5 6.2
3 -9 6 9.9 6.5
3 -9 6 14.3 5.6
3 -9 7 7.3 7
3 -9 8 7.9 7.2
3 -9 9 3.5 7.5
3 -9 10 14.9 9.8
-3 10 9 18.7 8.1
-3 10 8 53.09 11.5
-3 10 7 53.49 10.8
-3 10 6 25.6 7.7
-3 10 6 23.6 7
-3 10 6 19.6 6.8
-3 10 5 104.79 13.7
-3 10 5 91.49 15.4
-3 10 5 103.59 11.6
-3 10 5 116.69 17.4
3 -10 -5 85.39 12.2
-3 10 4 3 5.3
-3 10 4 3.8 3.4
-3 10 4 1.4 3.8
3 -10 -4 0.8 4
-3 10 3 17.6 5.7
-3 10 3 9.5 6.5
-3 10 3 24.2 6
3 -10 -3 20.6 6
-3 10 2 7.7 4.6
-3 10 2 4.5 3.8
-3 10 2 7.6 5.8
3 -10 -2 8.3 4.4
-3 10 1 4.1 3.9
-3 10 1 8.5 3.8
-3 10 0 47.5 8.7
3 -10 0 55.99 8.1
-3 10 -1 2.5 4.1
3 -10 1 9.5 4.7
-3 10 -2 6 4.9
3 -10 2 0.6 4
-3 10 -3 27.5 7.2
3 -10 3 25.7 7.6
-3 10 -4 1.6 4.3
3 -10 4 2.3 5.3
-3 10 -5 92.29 13.6
3 -10 5 107.49 15.9
-3 10 -6 7.4 6
3 -10 6 23.3 7.3
3 -10 6 18.9 8.3
3 -10 7 46.2 11.6
3 -10 8 54.29 12.8
3 -10 9 9.3 8.7
-3 11 9 7 7.4
-3 11 8 11.5 6.8
-3 11 7 10.5 6.1
-3 11 6 13 7.3
-3 11 6 29.9 8
-3 11 6 13.2 6.6
-3 11 5 6.7 6.1
-3 11 5 1.4 4.7
-3 11 5 3.2 3.7
3 -11 -5 11.6 5.5
-3 11 4 29.4 9.8
-3 11 4 27.1 6.7
-3 11 4 22.6 6.7
3 -11 -4 27.2 7.4
-3 11 3 14 5.1
-3 11 3 19.9 6.5
3 -11 -3 7 5.4
-3 11 2 46.1 7.6
-3 11 2 32.3 7.7
-3 11 1 14.1 5.7
-3 11 0 15.6 6
-3 11 -1 11.2 5.3
3 -11 1 5.8 4.8
-3 11 -2 42.2 9.3
3 -11 2 63.29 10.5
-3 11 -3 15 6.6
3 -11 3 6.7 5.7
-3 11 -4 16.9 7
3 -11 4 10.4 6.7
-3 11 -5 5.7 5.1
3 -11 5 1 5.1
-3 11 -6 17.7 7.2
3 -11 6 18 9.6
3 -11 7 12.1 7.7
3 -11 8 10.1 8.7
3 -11 9 4.1 8.3
-3 12 8 13.3 8.1
-3 12 7 24.4 8.4
-3 12 6 -0.5 4.7
-3 12 5 23.4 9.4
-3 12 5 18.7 6.8
-3 12 5 47.7 10.6
3 -12 -5 20.2 7.3
-3 12 4 -5.1 3.2
-3 12 4 0.2 4.2
3 -12 -4 2.9 4.9
-3 12 3 -3.4 3.7
-3 12 3 7.9 4.8
-3 12 2 5.9 4.5
-3 12 1 65.49 11.2
-3 12 0 61.39 11.3
-3 12 -1 79.19 13
-3 12 -2 8.7 5.7
3 -12 2 7.6 6.1
-3 12 -3 3.3 5.1
3 -12 3 8.8 6.8
-3 12 -4 -0.3 4.9
3 -12 4 0.1 6.3
-3 12 -5 26.9 8.5
3 -12 5 44.2 11
-3 12 -6 4.4 5.6
3 -12 6 -5.4 6.7
3 -12 7 18.2 10.1
3 -12 8 18.5 11
-3 13 7 20.1 8.4
-3 13 6 34.5 9.7
3 -13 -6 19 10.4
-3 13 5 3.9 5.5
-3 13 5 2.1 7.5
3 -13 -5 -1.7 4.8
-3 13 4 63.89 11.2
-3 13 4 46.3 9.4
3 -13 -4 35.6 9.1
-3 13 3 0 4.6
-3 13 2 74.69 12.6
-3 13 1 3.6 5
-3 13 0 81.69 13.3
-3 13 -1 -1.6 5
-3 13 -2 62.29 11.9
-3 13 -3 -8.4 3.8
3 -13 3 -2.2 6.1
-3 13 -4 36.9 10.3
3 -13 4 48.8 12.1
-3 13 -5 15.8 7.5
3 -13 5 13.3 8
-3 13 -6 34 10
3 -13 6 3.3 7.2
3 -13 7 12 9.1
3 -14 -6 14.1 8.6
-3 14 4 10.8 6.3
-3 14 3 33.5 9.2
-3 14 2 3.5 5.9
-3 14 1 2 5.7
-3 14 0 -0.3 5.2
-3 14 -1 0.8 5.9
-3 14 -2 -2.6 5.9
-3 14 -3 0.2 5.5
-3 14 -4 -2.6 5.4
-3 14 -5 27.8 9.8
3 -14 5 15.2 9.6
-3 14 -6 2.9 7.2
3 -14 6 34.7 12.5
-3 15 4 -1.2 5.1
-3 15 3 -3.1 5.4
-3 15 2 19.1 8
-3 15 1 3.4 6
-3 15 0 64.69 13.6
-3 15 -1 29.3 9.5
-3 15 -2 22.8 8.9
-3 15 -3 -4.2 5.8
-3 15 -4 -4.6 5.9
4 15 -4 -1 5.7
-4 -15 3 9.4 7.6
4 15 -3 2.1 6.3
4 15 -2 14.7 8.3
4 15 -1 6.1 7.2
4 15 0 10.5 7.4
-4 -15 -1 9.5 6.3
4 15 1 8.3 6.2
-4 -15 -2 28 9
4 15 2 21.6 8.9
-4 -15 -3 2.7 6.4
4 15 3 8.9 6.7
-4 -15 -4 21.4 8.2
4 15 4 7 6.3
-4 -14 5 12.1 9.1
4 14 -5 4.6 7.3
-4 -14 4 18.6 8.7
4 14 -4 21.8 8.9
-4 -14 3 -5 5.9
4 14 -3 -2 5.2
4 14 -2 36.6 9.7
4 14 -1 6.9 5.6
-4 -14 0 37.4 8.8
4 14 0 62.79 12.2
-4 -14 -1 14.2 6.6
4 14 1 12 7
-4 -14 -2 30.6 8.9
4 14 2 14.9 7.3
-4 -14 -3 0.3 5.3
4 14 3 -1 5
-4 -14 -4 44.7 10.3
4 14 4 34 9.3
-4 -14 -5 -4.5 6
4 14 5 -1.1 6.3
-4 -13 7 14.4 10.4
-4 -13 6 4.1 7.9
-4 -13 5 0.3 7.1
4 13 -5 2.3 6.7
-4 -13 4 18.6 8.3
-4 -13 4 24.4 9.3
4 13 -4 29.1 8.8
-4 -13 3 23.5 7.9
4 13 -3 16.1 7.3
4 13 -2 8.7 6.3
4 13 -1 11.5 6.8
-4 -13 0 49.6 9.6
4 13 0 41.6 9.9
-4 -13 -1 4.6 5
4 13 1 -1.4 4.5
-4 -13 -2 16.7 6.7
4 13 2 15.6 6.8
-4 -13 -3 4.8 5.2
4 13 3 19 7.4
-4 -13 -4 15.3 7.2
4 13 4 22.8 7.4
-4 -13 -5 8.7 5.8
4 13 5 7.9 5.6
-4 -13 -6 7.4 6.6
4 13 6 21.3 8.4
4 13 7 16.3 8.7
-4 -12 8 19.9 10.4
-4 -12 7 7.9 8.6
-4 -12 6 7.6 7.7
-4 -12 5 3.3 6
4 12 -5 -2.4 5
-4 -12 4 33.5 8.8
-4 -12 4 32.9 9.4
4 12 -4 43.3 10
4 12 -3 44 10.3
4 12 -2 96.39 14
-4 -12 1 55.59 9.4
4 12 -1 45.6 10
-4 -12 0 72.89 11.3
4 12 0 85.39 13.1
-4 -12 -1 53.29 9.7
4 12 1 45.9 9.8
-4 -12 -2 88.79 12.7
4 12 2 67.59 11.8
-4 -12 -3 39.1 8.6
4 12 3 63.29 10.8
-4 -12 -4 48 9.6
4 12 4 53.39 10.1
4 12 4 38.3 9.1
-4 -12 -5 12.4 6.5
4 12 5 2.3 4.6
4 12 5 0.4 5.2
4 12 5 1 5.2
-4 -12 -6 1.3 5.4
4 12 6 3.1 6.1
4 12 7 -0.9 6.7
4 12 8 46.6 12.7
-4 -11 9 69.89 16.5
-4 -11 8 6.1 7.4
-4 -11 7 15.8 7.9
-4 -11 6 -3 5.5
-4 -11 6 1.8 4.4
-4 -11 5 1.9 5.6
-4 -11 5 3.4 5.7
4 11 -5 -3.5 4.1
-4 -11 4 22.8 7.7
-4 -11 4 22.5 8.1
4 11 -4 38.3 9.1
4 11 -3 14.9 6.2
4 11 -2 43.5 9.3
-4 -11 1 20.9 6
4 11 -1 35.5 8.3
-4 -11 0 64.69 10.2
4 11 0 57.49 10.2
-4 -11 -1 16.1 5.6
4 11 1 11.6 5.1
-4 -11 -2 84.09 11.8
4 11 2 71.89 11.6
-4 -11 -3 13 5.9
4 11 3 11.4 5.3
4 11 3 9.2 5.1
-4 -11 -4 23.3 6.7
4 11 4 6.2 5.7
4 11 4 15.2 6.4
4 11 4 27.3 7
-4 -11 -5 9 5.7
4 11 5 -4.3 2.9
4 11 5 2.7 5.4
4 11 5 0.2 4.8
-4 -11 -6 6.5 5.5
4 11 6 6 5.8
4 11 6 -2.5 4.5
4 11 7 14.2 7.6
4 11 8 -3.7 6.1
4 11 9 35.3 11.6
-4 -10 9 6.2 8
-4 -10 8 19 9.5
-4 -10 7 -2.2 5.2
-4 -10 6 65.59 10.6
-4 -10 6 69.59 12.9
-4 -10 5 81.99 13.8
-4 -10 5 71.49 13.1
-4 -10 5 115.19 15.7
4 10 -5 112.59 14.2
-4 -10 4 81.39 12.6
-4 -10 4 75.79 12.8
4 10 -4 92.39 12.8
4 10 -3 -5.6 3.4
4 10 -2 185.28 19.5
-4 -10 1 6.3 3.9
4 10 -1 0 3.7
-4 -10 0 429.76 30.5
4 10 0 372.56 30.7
-4 -10 -1 0.8 3.5
4 10 1 10.1 4.6
-4 -10 -2 171.58 17.5
4 10 2 179.08 18.3
4 10 2 150.18 14.8
-4 -10 -3 0.8 3.2
4 10 3 1.3 3.6
4 10 3 -0.5 3.5
4 10 3 1.9 3.8
-4 -10 -4 77.69 10.8
4 10 4 91.39 11.4
4 10 4 82.49 11.9
4 10 4 45.7 10.9
-4 -10 -5 90.39 11.8
4 10 5 60.29 12.2
4 10 5 120.29 12.4
4 10 5 84.49 12.9
-4 -10 -6 51.49 9.4
4 10 6 53.69 11.6
4 10 6 49.4 10.4
4 10 6 90.99 13.8
4 10 7 8.3 5.7
4 10 7 15.1 7.8
4 10 8 4 6.9
4 10 9 -1.7 6
-4 -9 10 0.9 5.6
-4 -9 9 2.2 7.6
-4 -9 8 5 7.1
-4 -9 7 7.5 6.5
-4 -9 6 16.5 7.3
-4 -9 6 15.6 7.3
-4 -9 6 15.2 5
-4 -9 5 70.49 11.7
-4 -9 5 60.39 11.7
-4 -9 5 64.79 11.1
4 9 -5 83.39 18.3
4 9 -5 63.29 10.5
-4 -9 4 98.79 14.7
-4 -9 4 113.09 14.7
-4 -9 4 119.49 17
4 9 -4 144.69 16.3
4 9 -4 117.99 14.4
-4 -9 3 90.29 15.9
4 9 -3 117.59 13.9
4 9 -3 94.39 13.5
-4 -9 2 13 4.3
4 9 -2 12 5.7
4 9 -2 11.4 4.8
-4 -9 1 143.89 13.7
4 9 -1 139.79 17.9
4 9 -1 179.88 17.6
-4 -9 0 0.3 2.9
4 9 0 5.6 4
4 9 0 3.1 2.6
-4 -9 -1 121.49 13.4
4 9 1 79.49 18.2
4 9 1 145.89 11.7
4 9 1 113.89 13.8
-4 -9 -2 9.3 4.5
4 9 2 16.4 5.3
4 9 2 12.7 4.4
4 9 2 7.8 4
-4 -9 -3 101.89 12.5
4 9 3 93.99 15.8
4 9 3 131.89 14.2
4 9 3 105.19 12.6
-4 -9 -4 112.49 13.2
4 9 4 120.19 18
4 9 4 132.49 13.7
4 9 4 95.89 13.2
-4 -9 -5 95.69 11.8
4 9 5 76.29 12
4 9 5 87.19 10.1
4 9 5 74.39 14.9
4 9 5 47.5 10.5
-4 -9 -6 17.8 5.7
4 9 6 24.1 8.1
4 9 6 19.8 7.3
4 9 6 13.4 5.8
4 9 7 13.4 7.2
4 9 8 3.6 6.1
4 9 9 2.5 6.5
4 9 10 0.2 6
-4 -8 10 13.5 7.3
-4 -8 9 62.59 14.8
-4 -8 8 17.9 7.8
-4 -8 7 11.7 6.6
-4 -8 6 1.5 5.2
-4 -8 6 8.5 6.4
-4 -8 5 19.2 5.7
-4 -8 5 19.8 6.4
-4 -8 5 17.2 7.1
4 8 -5 17.1 5.6
4 8 -5 19.8 5.9
-4 -8 4 151.08 16.7
-4 -8 4 155.98 15.2
-4 -8 4 145.09 17.3
4 8 -4 143.79 15.4
4 8 -4 157.18 15.3
-4 -8 3 46.5 9
-4 -8 3 41.6 9.5
4 8 -3 48.6 8.3
4 8 -3 57.49 10.2
-4 -8 2 10.7 3.9
-4 -8 2 14.6 6.2
4 8 -2 9.1 4.3
4 8 -2 23.5 6.4
-4 -8 1 18.1 4.6
-4 -8 1 17 6
4 8 -1 9.1 5.4
4 8 -1 22.9 3.4
4 8 -1 24 5.9
4 8 -1 26.1 7.1
-4 -8 0 1.1 3.4
-4 -8 0 1.5 2.7
4 8 0 2.7 7.2
4 8 0 -1.6 2.6
4 8 0 0.1 2
4 8 0 0.4 4
4 8 0 -0.2 3.3
-4 -8 -1 16.9 7.2
-4 -8 -1 13.9 4.2
4 8 1 21.6 7.9
4 8 1 17.5 4.3
4 8 1 13.2 5.8
4 8 1 21.1 5.4
4 8 1 29.4 8.9
-4 -8 -2 10 4.2
4 8 2 14.5 4.5
4 8 2 12.5 6.8
4 8 2 11.4 3.9
4 8 2 15.5 7.8
-4 -8 -3 43.7 7
4 8 3 39 9.7
4 8 3 34.7 6.4
4 8 3 30.3 8.3
4 8 3 39.3 7.2
-4 -8 -4 169.18 14.4
4 8 4 122.99 17.4
4 8 4 152.18 13.3
4 8 4 134.99 16.1
4 8 4 155.98 16.5
-4 -8 -5 21 5.7
4 8 5 33.1 5.7
4 8 5 23.2 6.8
4 8 5 16.4 7.5
4 8 5 16.2 6.4
-4 -8 -6 7.4 4.5
4 8 6 7.4 5.5
4 8 6 6.1 4
4 8 6 2.4 4.6
4 8 7 13.6 6.8
4 8 8 15.2 7.6
4 8 9 63.79 14
4 8 10 8.3 7.5
-4 -7 11 8.5 6.5
-4 -7 10 23 9
-4 -7 9 120.99 18.5
-4 -7 8 -0.9 5
-4 -7 7 28.6 8.6
-4 -7 6 62.49 11.4
-4 -7 5 216.08 22.1
-4 -7 5 232.88 21.3
-4 -7 5 239.18 19.7
4 7 -5 270.67 20.1
4 7 -5 252.07 20.3
-4 -7 4 242.28 20
-4 -7 4 250.57 21
-4 -7 4 210.68 20
4 7 -4 245.68 19.1
4 7 -4 225.38 19.5
-4 -7 3 41.4 8.9
-4 -7 3 34.5 7.4
4 7 -3 42.7 7.1
4 7 -3 65.89 12.5
4 7 -3 55.99 9.1
-4 -7 2 29.4 5.4
-4 -7 2 28.5 8
4 7 -2 26.9 7.5
4 7 -2 29.9 6.7
4 7 -2 23.4 7.6
4 7 -2 21.7 5.4
-4 -7 1 560.24 37.4
-4 -7 1 505.15 41.5
4 7 -1 552.44 38.2
4 7 -1 580.14 40.3
4 7 -1 555.94 35.2
4 7 -1 510.65 41.5
4 7 -1 558.54 42.5
-4 -7 0 -1 2.7
-4 -7 0 3 2.5
4 7 0 1.2 3.3
4 7 0 1.3 1.9
4 7 0 -0.4 2.4
4 7 0 -2 2.9
4 7 0 -8.5 9.5
-4 -7 -1 558.44 38.1
-4 -7 -1 544.15 42.7
-4 -7 -1 570.74 42.8
4 7 1 546.25 40.8
4 7 1 549.95 37.3
4 7 1 602.54 38.8
4 7 1 522.05 42.2
4 7 1 531.35 41.8
-4 -7 -2 15.9 4.7
-4 -7 -2 33.1 5.7
-4 -7 -2 44.7 11
4 7 2 14 5.3
4 7 2 39.3 6.3
4 7 2 31.9 5.7
4 7 2 25.5 7.4
4 7 2 41.4 9
-4 -7 -3 73.69 18.6
-4 -7 -3 44.1 9.7
-4 -7 -3 57.19 7.8
4 7 3 37.2 6.4
4 7 3 40.7 7.4
4 7 3 44.2 8.9
4 7 3 39.8 9.6
-4 -7 -4 256.07 20.2
4 7 4 280.17 21.8
4 7 4 240.18 22.4
4 7 4 252.97 23.6
4 7 4 256.07 19.4
-4 -7 -5 246.88 19.3
4 7 5 274.27 18.1
4 7 5 215.18 20.5
4 7 5 211.28 21.1
4 7 5 245.78 21
-4 -7 -6 73.99 10
4 7 6 82.19 9.8
4 7 6 84.69 10.2
4 7 6 119.59 14.8
4 7 7 24.4 7.6
4 7 8 2.2 5
4 7 9 163.78 22
4 7 10 21.1 8.9
4 7 11 58.59 14.4
-4 -6 11 9.2 6.2
-4 -6 10 39.1 9.7
-4 -6 9 10.1 6.9
-4 -6 8 52.69 11.4
-4 -6 7 17.6 6.8
-4 -6 6 90.69 13
-4 -6 5 118.19 14.6
-4 -6 5 148.19 17.2
4 6 -5 97.29 11.3
4 6 -5 116.19 13
-4 -6 4 2.8 3.9
-4 -6 4 1.9 2.9
-4 -6 4 2.6 2.7
4 6 -4 -1.2 2.2
4 6 -4 1 2.8
-4 -6 3 5.1 3.7
-4 -6 3 0.3 3
4 6 -3 -1.1 3.7
4 6 -3 -1.1 2.2
4 6 -3 0.7 2.8
-4 -6 2 43.7 5.8
-4 -6 2 42.3 8.5
4 6 -2 36.4 7.2
4 6 -2 41 6.6
4 6 -2 47.9 9.5
4 6 -2 60.79 10.9
-4 -6 1 68.29 10.4
-4 -6 1 100.29 8.7
4 6 -1 101.29 7.1
4 6 -1 76.99 9.3
4 6 -1 75.19 11.9
4 6 -1 78.29 12.2
4 6 -1 113.39 12.9
-4 -6 0 34.8 7.7
-4 -6 0 54.79 6.6
4 6 0 36.4 7.3
4 6 0 39.9 7.8
4 6 0 42.3 5
4 6 0 29.6 5.4
4 6 0 15.9 5.1
-4 -6 -1 94.99 13.9
-4 -6 -1 94.49 10.4
-4 -6 -1 142.99 18.1
4 6 1 89.29 12.4
4 6 1 103.49 15
4 6 1 99.99 11
4 6 1 97.69 9.3
4 6 1 120.19 16.1
-4 -6 -2 59.29 7.5
-4 -6 -2 50.39 10.5
-4 -6 -2 36.3 8.1
4 6 2 48.4 7
4 6 2 46.7 8.8
4 6 2 45.3 6.6
4 6 2 56.79 10.8
-4 -6 -3 2.6 2.7
-4 -6 -3 2.8 4.5
-4 -6 -3 3.5 7.3
4 6 3 -0.6 3.4
4 6 3 -2 2.1
4 6 3 4.3 2.5
4 6 3 4.8 3.2
-4 -6 -4 4 4
-4 -6 -4 1.8 2.7
4 6 4 3.2 3
4 6 4 5.5 5
4 6 4 0.6 2.8
4 6 4 2.7 2.1
-4 -6 -5 122.69 11.6
4 6 5 122.19 12.9
4 6 5 137.59 15.2
4 6 5 112.79 12.2
4 6 5 126.19 9.9
-4 -6 -6 70.69 9
4 6 6 73.89 11.5
4 6 7 15.2 6.5
4 6 8 46.9 10.7
4 6 9 13.4 7
4 6 10 51.79 12
4 6 11 32.2 11.1
-4 -5 12 -3.9 5.1
-4 -5 11 1.8 4.9
-4 -5 10 20.3 8
-4 -5 9 40.9 10.7
-4 -5 8 -0.7 4.6
-4 -5 7 7.8 5.1
-4 -5 6 11.4 5.1
-4 -5 5 11.2 4.6
4 5 -5 20.1 4
4 5 -5 15.4 4.4
-4 -5 4 49.99 9.3
-4 -5 4 52.99 8.1
-4 -5 4 52.79 7.4
4 5 -4 53.59 7.9
4 5 -4 47.3 6.4
-4 -5 3 49.1 7.9
-4 -5 3 56.59 8.8
4 5 -3 43.4 7.2
4 5 -3 42.1 8.7
4 5 -3 49.9 6.5
-4 -5 2 231.78 16.5
-4 -5 2 196.58 18.1
-4 -5 2 224.48 19.5
4 5 -2 219.88 17.1
4 5 -2 252.17 18.8
4 5 -2 223.18 19.9
4 5 -2 230.88 20.1
-4 -5 1 196.88 15.7
-4 -5 1 251.47 19.9
4 5 -1 195.38 16.2
4 5 -1 207.88 14.4
4 5 -1 265.47 20.1
4 5 -1 200.78 19.1
4 5 -1 192.18 17.4
-4 -5 0 41.4 6
-4 -5 0 85.09 12.8
4 5 0 52.49 7
4 5 0 48.1 5.5
4 5 0 58.39 9.6
4 5 0 48.2 7.9
4 5 0 63.49 10.6
-4 -5 -1 249.08 19.8
-4 -5 -1 208.48 18.8
-4 -5 -1 196.98 15.8
4 5 1 193.28 15.4
4 5 1 206.28 17.7
4 5 1 191.68 18.3
4 5 1 221.38 19.4
4 5 1 208.68 16.1
-4 -5 -2 221.58 16.8
-4 -5 -2 203.58 19.7
-4 -5 -2 230.98 20.4
4 5 2 235.98 17.1
4 5 2 240.38 20.3
4 5 2 214.28 17.1
4 5 2 220.48 19.5
4 5 2 219.38 19
-4 -5 -3 37.9 5.8
-4 -5 -3 47.1 8.8
-4 -5 -3 43.5 9.1
4 5 3 46.4 10
4 5 3 30.7 7.2
4 5 3 41.3 5.9
4 5 3 45.6 8.2
4 5 3 44.2 6.9
-4 -5 -4 70.29 11.2
-4 -5 -4 46.9 6.6
4 5 4 53.79 8.2
4 5 4 41.7 7.5
4 5 4 53.29 6.1
4 5 4 59.39 9.6
-4 -5 -5 16.2 4.4
4 5 5 19.8 5.5
4 5 5 14.9 4.5
4 5 5 17.5 4.4
4 5 5 24.9 2.8
-4 -5 -6 11.1 3.9
4 5 6 5.6 4.1
4 5 7 2.6 5
4 5 8 8.8 6.1
4 5 9 27.5 8.5
4 5 10 38.1 10.8
4 5 11 8.4 6.7
4 5 12 6.8 8.1
-4 -4 12 9 7.3
-4 -4 11 16.6 6.6
-4 -4 10 16 7.1
-4 -4 9 80.49 13.6
-4 -4 8 50.19 10.8
-4 -4 7 106.29 14.7
-4 -4 6 69.99 7.4
-4 -4 6 46.5 9.2
4 4 -6 87.69 9.3
-4 -4 5 64.19 9.3
-4 -4 5 63.09 5.9
4 4 -5 64.99 8.3
4 4 -5 67.69 6.9
-4 -4 4 5.1 4.3
-4 -4 4 7.9 3.2
4 4 -4 6.8 3.1
4 4 -4 7.4 2.5
-4 -4 3 456.45 32.2
-4 -4 3 498.05 33.9
4 4 -3 460.25 32.3
4 4 -3 453.15 30.9
4 4 -3 448.46 33.4
-4 -4 2 123.29 9.8
-4 -4 2 145.39 12.8
-4 -4 2 132.29 12
4 4 -2 135.59 11.8
4 4 -2 124.79 12.6
4 4 -2 118.69 10.4
4 4 -2 126.79 12.7
-4 -4 1 831.02 58.49
-4 -4 1 890.81 55.99
-4 -4 1 914.61 58.99
4 4 -1 803.02 58.59
4 4 -1 888.71 57.89
4 4 -1 856.41 56.39
4 4 -1 875.61 54.89
4 4 -1 918.81 59.39
-4 -4 0 1839.12 114.79
-4 -4 0 1774.52 111.69
4 4 0 1772.72 114.79
4 4 0 1699.73 113.39
4 4 0 1787.52 110.89
4 4 0 1768.82 112.09
-4 -4 -1 964.5 60.59
-4 -4 -1 884.31 57.29
-4 -4 -1 850.11 60.19
4 4 1 872.11 59.79
4 4 1 883.61 57.59
4 4 1 880.61 57.19
4 4 1 898.01 59.39
-4 -4 -2 116.49 13.1
-4 -4 -2 153.48 11.2
-4 -4 -2 128.39 13.5
4 4 2 130.29 10.9
4 4 2 132.69 12.5
4 4 2 138.79 13.7
4 4 2 129.59 12.8
4 4 2 146.79 11.6
-4 -4 -3 493.35 35.4
-4 -4 -3 471.15 32.1
-4 -4 -3 586.44 38.2
4 4 3 426.06 33.3
4 4 3 466.85 31.5
4 4 3 467.45 34.5
4 4 3 434.26 32.8
4 4 3 481.65 34.3
-4 -4 -4 13.5 6.3
-4 -4 -4 7 3.1
4 4 4 9.8 3.8
4 4 4 15.5 4.7
4 4 4 4 2.9
4 4 4 11 2.4
-4 -4 -5 74.59 7.9
4 4 5 57.29 9.1
-4 -4 -6 71.79 8.3
4 4 6 92.89 12.1
4 4 7 118.49 15.1
4 4 8 33.9 8.9
4 4 9 117.39 17.4
4 4 10 25.7 8.8
4 4 11 6.5 6.9
4 4 12 -0.4 6.4
-4 -3 12 5.3 5.2
-4 -3 11 12.4 6.1
-4 -3 9 80.89 12
-4 -3 9 89.79 13.6
-4 -3 8 39 8.2
-4 -3 8 80.89 9.4
-4 -3 8 56.29 10.6
-4 -3 7 127.29 11.6
-4 -3 7 143.89 16.3
-4 -3 7 114.99 13.6
-4 -3 6 98.89 9.1
-4 -3 6 109.79 13.4
-4 -3 6 90.79 10.9
4 3 -6 105.69 9.9
-4 -3 5 38.5 4.8
-4 -3 5 35.2 6.6
-4 -3 5 23.7 5.3
4 3 -5 27.8 5.3
-4 -3 4 267.77 20.5
-4 -3 4 273.97 20.8
-4 -3 4 273.77 18.6
4 3 -4 300.67 20.6
4 3 -4 261.07 18.5
-4 -3 3 243.48 18.1
-4 -3 3 240.28 19.7
4 3 -3 243.28 16.6
4 3 -3 234.88 18.1
4 3 -3 233.08 18.6
-4 -3 2 0.7 1.1
-4 -3 2 -0.3 1.7
-4 -3 2 -0.9 2.2
-4 -3 2 1.5 2.2
4 3 -2 1.2 1.5
4 3 -2 0.2 2.1
4 3 -2 2.1 2.6
4 3 -2 2.2 2.6
-4 -3 1 75.79 6.7
-4 -3 1 93.29 9.2
-4 -3 1 76.59 8.6
4 3 -1 71.99 8.5
4 3 -1 83.19 8.9
4 3 -1 81.79 7.1
4 3 -1 73.69 9.3
-4 -3 0 189.48 16.9
-4 -3 0 176.48 14.4
4 3 0 205.38 14
4 3 0 207.38 16.2
4 3 0 208.48 15
4 3 0 249.28 17.6
4 3 0 208.38 18
-4 -3 -1 76.79 9
-4 -3 -1 72.49 9.8
-4 -3 -1 82.99 7.3
4 3 1 94.69 7.5
4 3 1 93.69 9.3
4 3 1 86.09 7
4 3 1 83.29 9.3
4 3 1 51.29 9
-4 -3 -2 2.8 2.5
-4 -3 -2 -0.9 2
-4 -3 -2 0.1 1.9
4 3 2 -0.5 1.4
4 3 2 0.7 1.6
4 3 2 0.1 2.2
4 3 2 0.4 2
4 3 2 4.9 3.4
-4 -3 -3 263.27 17.8
-4 -3 -3 240.98 20.1
-4 -3 -3 276.27 20.6
4 3 3 226.48 19
4 3 3 262.87 17.3
4 3 3 230.98 18.6
4 3 3 230.38 18.7
4 3 3 254.17 19.4
-4 -3 -4 283.57 20.4
4 3 4 300.67 21
4 3 4 252.97 21.8
4 3 4 310.77 22.6
4 3 4 290.57 21
4 3 4 304.97 19
-4 -3 -5 32.2 4.7
4 3 5 35.4 6.8
-4 -3 -6 101.29 8.8
4 3 6 100.79 13
4 3 7 102.69 13.5
4 3 8 46.3 9.7
4 3 9 129.39 17.9
4 3 10 39.1 10.6
4 3 11 28.1 9.1
4 3 12 17.5 9.6
-4 -2 12 11.7 6.6
-4 -2 11 35.2 9.9
-4 -2 10 160.48 18.9
-4 -2 10 133.29 16.7
-4 -2 10 141.09 16.4
-4 -2 9 127.79 16.7
-4 -2 9 131.09 15.4
-4 -2 9 107.99 13.6
-4 -2 8 4.9 4.8
-4 -2 8 1.5 3.3
-4 -2 8 1.8 3.3
-4 -2 7 30 7.2
-4 -2 7 31.4 6.6
-4 -2 7 41.2 6.7
-4 -2 6 110.69 13
-4 -2 6 118.09 12.5
-4 -2 6 94.89 10.4
4 2 -6 100.79 10.1
-4 -2 5 25.6 5.3
-4 -2 5 32 4.8
-4 -2 5 26.3 5.8
4 2 -5 34.2 5.9
-4 -2 4 102.49 8.1
-4 -2 4 101.89 9.4
-4 -2 4 86.19 9.8
4 2 -4 87.09 9
-4 -2 3 228.68 16.6
-4 -2 3 228.98 15.1
4 2 -3 220.28 16.8
4 2 -3 208.68 16.3
-4 -2 2 121.79 11.5
-4 -2 2 137.89 10.4
-4 -2 2 135.59 8.8
4 2 -2 123.29 10.8
4 2 -2 114.09 10.5
4 2 -2 124.29 11.2
-4 -2 1 26.9 5.2
-4 -2 1 27.3 4.6
-4 -2 1 26.7 3.4
-4 -2 1 19.4 4.3
-4 -2 1 26.2 3.9
4 2 -1 33.3 5
4 2 -1 26.9 5.4
4 2 -1 31.9 3.6
4 2 -1 18.3 3.8
-4 -2 0 5219.58 347.57
-4 -2 0 5277.87 345.77
4 2 0 6340.37 347.57
4 2 0 5359.36 347.87
4 2 0 5097.69 345.37
4 2 0 6328.27 346.17
-4 -2 -1 21.5 3.6
-4 -2 -1 23.3 4.4
-4 -2 -1 30.7 5.6
4 2 1 19.9 4.1
4 2 1 25.7 3.5
4 2 1 31.1 5
4 2 1 21.7 3.2
4 2 1 21.3 4.9
-4 -2 -2 150.98 13.6
-4 -2 -2 138.39 10.4
-4 -2 -2 126.09 11.8
4 2 2 133.89 11.5
4 2 2 131.89 10.7
4 2 2 133.99 10.1
4 2 2 149.59 12.9
4 2 2 128.79 11.2
-4 -2 -3 233.08 18.1
-4 -2 -3 223.38 15.9
-4 -2 -3 234.68 18
4 2 3 239.28 17.5
4 2 3 214.78 16.8
4 2 3 217.98 17
4 2 3 242.58 15.4
4 2 3 216.18 16.6
-4 -2 -4 82.49 7.2
4 2 4 89.99 10
4 2 4 88.79 8.8
-4 -2 -5 33.1 4.1
4 2 5 24.2 5.7
4 2 5 29.8 3.4
-4 -2 -6 103.99 7.9
4 2 6 84.79 7.3
4 2 6 84.99 11.6
4 2 7 41.4 8
4 2 8 4.2 4.7
4 2 9 138.09 17.7
4 2 10 183.18 22.5
4 2 11 35.7 10.6
4 2 12 28 10.1
-4 -1 12 8.3 6.4
-4 -1 11 82.99 12.9
-4 -1 11 85.29 13.5
-4 -1 10 153.58 17.2
-4 -1 10 122.79 17.3
-4 -1 10 114.19 16.9
-4 -1 9 36 8
-4 -1 9 40.8 9.7
-4 -1 9 42.3 8.1
-4 -1 8 63.59 10.2
-4 -1 8 81.49 10.9
-4 -1 8 73.19 11.9
-4 -1 7 5.2 3.7
-4 -1 7 -2.4 2.4
-4 -1 7 4.2 3.1
4 1 -7 0.4 2.9
-4 -1 6 25.9 5.2
-4 -1 6 21.6 5.2
-4 -1 6 19 5.2
4 1 -6 31.2 6
-4 -1 5 105.49 9.3
-4 -1 5 89.89 10.7
-4 -1 5 93.39 10.6
4 1 -5 100.39 9.9
-4 -1 4 138.59 10.5
-4 -1 4 118.09 11
-4 -1 4 122.59 11.2
4 1 -4 132.59 11.6
-4 -1 3 233.58 17.4
-4 -1 3 226.88 16.2
-4 -1 3 240.78 17
4 1 -3 242.08 17.9
-4 -1 2 279.27 19.9
-4 -1 2 282.27 17.9
-4 -1 2 282.07 19.1
4 1 -2 290.27 20
4 1 -2 273.47 20.5
-4 -1 1 849.02 51.19
-4 -1 1 980.6 52.99
-4 -1 1 715.43 52.59
-4 -1 1 816.52 51.89
4 1 -1 741.33 52.59
4 1 -1 754.72 52.59
-4 -1 0 74.39 7.1
-4 -1 0 86.59 8.8
-4 -1 0 80.79 7
4 1 0 107.19 8.5
4 1 0 106.79 7.4
4 1 0 79.39 8.6
4 1 0 113.39 8.9
-4 -1 -1 731.03 46.4
-4 -1 -1 667.73 43.7
-4 -1 -1 694.93 46
-4 -1 -1 721.73 44.6
4 1 1 724.43 44.6
4 1 1 705.63 45.5
4 1 1 695.53 46.1
4 1 1 659.03 45.8
4 1 1 697.43 44.4
-4 -1 -2 291.07 20.7
-4 -1 -2 268.27 20.4
-4 -1 -2 297.47 19
4 1 2 286.47 18.8
4 1 2 289.37 20
4 1 2 271.97 19.4
4 1 2 278.37 20.2
4 1 2 268.57 20.1
-4 -1 -3 215.38 16.6
-4 -1 -3 221.08 16.8
-4 -1 -3 216.48 15
4 1 3 213.18 16.1
4 1 3 221.98 15.6
4 1 3 218.78 16.4
4 1 3 220.88 14.3
4 1 3 224.08 15.8
-4 -1 -4 119.59 9.1
4 1 4 133.49 11.5
4 1 4 122.79 10.4
-4 -1 -5 116.49 8.3
4 1 5 110.89 12.2
4 1 5 101.09 7.8
4 1 5 125.69 12.6
-4 -1 -6 29.4 3.6
4 1 6 20.1 5.5
4 1 6 28 3.5
4 1 6 29.2 6.3
4 1 7 4.6 3.9
4 1 7 3.6 3.6
4 1 8 56.49 10.6
4 1 8 65.59 10.5
4 1 9 34.3 9
4 1 9 51.09 10.2
4 1 10 136.29 18.8
4 1 10 183.08 21.1
4 1 11 72.79 15
4 1 11 148.19 19.7
4 1 12 6.1 6.5
-4 0 12 53.59 12.8
-4 0 12 87.39 14.2
-4 0 11 42.8 10.7
-4 0 11 53.99 10.7
-4 0 10 69.49 12.6
-4 0 10 76.29 11.7
-4 0 9 35.6 7.7
-4 0 9 32 7.4
-4 0 9 49 10.4
-4 0 8 211.08 18.5
-4 0 8 204.68 19.1
-4 0 8 206.08 18.3
-4 0 7 44.7 7.4
-4 0 7 43.2 8.2
-4 0 7 51.09 8.2
4 0 -7 42.3 8
-4 0 6 1044.6 70.29
-4 0 6 1093.79 70.89
-4 0 6 1054.89 70.49
4 0 -6 1093.19 71.09
-4 0 5 467.55 30.9
-4 0 5 401.16 30.6
-4 0 5 435.46 31
4 0 -5 451.75 31.8
-4 0 4 1240.18 79.39
-4 0 4 1245.58 79.69
-4 0 4 1214.88 79.79
4 0 -4 1270.77 80.89
-4 0 3 1033.2 69.69
-4 0 3 1083.39 69.19
-4 0 3 1083.19 69.29
4 0 -3 1164.08 71.19
-4 0 2 2934.41 182.08
-4 0 2 2829.12 182.48
-4 0 2 2872.31 183.18
4 0 -2 2948.3 184.38
4 0 -2 3114.29 183.28
-4 0 1 20.8 3.4
-4 0 1 22.8 2.8
4 0 -1 24.4 4.2
4 0 -1 21.9 4.2
-4 0 0 1253.77 81.49
-4 0 0 1307.57 80.29
-4 0 -1 26.1 3.1
-4 0 -1 18.6 4
4 0 1 22 4.6
4 0 1 30 4.7
-4 0 -2 2601.44 171.08
-4 0 -2 2813.32 171.48
-4 0 -2 2776.32 169.78
4 0 2 2673.83 169.48
4 0 2 2730.33 170.28
4 0 2 2715.23 170.98
4 0 2 2852.41 171.08
-4 0 -3 1052.09 64.79
-4 0 -3 989.7 66.19
-4 0 -3 972.6 66.09
4 0 3 1058.39 65.29
4 0 3 1031.3 66.09
4 0 3 1038.5 63.79
4 0 3 1046.1 65.19
4 0 3 1055.29 66.39
-4 0 -4 1205.98 76.29
4 0 4 1251.17 78.89
4 0 4 1204.68 78.49
-4 0 -5 422.06 27.7
4 0 5 432.36 30.6
4 0 5 435.66 31.1
-4 0 -6 1031.1 67.29
4 0 6 1139.99 71.99
4 0 6 1068.19 71.09
4 0 7 54.79 9.3
4 0 7 44 8.3
4 0 8 211.98 20.7
4 0 8 228.98 20.2
4 0 9 42.3 9.7
4 0 9 39.6 10.3
4 0 10 118.19 16.5
4 0 10 118.39 17.7
4 0 11 52.79 12.1
4 0 11 49.8 11.5
4 0 12 82.19 15.2
4 0 12 76.59 15.1
-4 1 12 17.4 7.4
-4 1 12 7 6.9
-4 1 11 115.59 16.5
-4 1 11 107.99 16.6
-4 1 10 109.79 15.6
-4 1 10 131.19 16.2
-4 1 9 69.39 10.8
-4 1 9 39.9 8.6
-4 1 9 55.29 10.6
-4 1 8 69.29 10.7
-4 1 8 76.29 11.2
-4 1 8 91.49 12.4
-4 1 7 0.3 3.2
-4 1 7 9.4 4.2
-4 1 7 -0.6 2.9
4 -1 -7 0.5 3.9
-4 1 6 16 4.8
-4 1 6 19.4 5.1
-4 1 6 26.1 5.4
4 -1 -6 28.9 6.5
-4 1 5 115.79 10.6
-4 1 5 114.49 11.8
-4 1 5 104.29 11.4
4 -1 -5 116.89 13.2
-4 1 4 140.39 10.9
-4 1 4 125.69 10.9
4 -1 -4 117.59 12.2
-4 1 3 217.58 16.4
-4 1 3 230.98 16
4 -1 -3 221.58 18.1
4 -1 -3 230.18 14.6
-4 1 2 279.77 18.4
-4 1 2 293.67 19.1
-4 1 2 296.47 19.9
-4 1 2 297.07 19.9
4 -1 -2 307.17 22
4 -1 -2 277.07 20.3
-4 1 1 707.63 43.4
-4 1 1 675.23 44.6
4 -1 -1 668.53 44.6
-4 1 0 116.39 8.1
4 -1 0 102.79 9.1
4 -1 0 84.09 9.1
-4 1 -1 681.43 44.7
-4 1 -1 686.73 46.1
4 -1 1 694.03 46.1
4 -1 1 743.73 44.7
-4 1 -2 250.97 17.9
-4 1 -2 262.67 19.6
4 -1 2 265.57 18.1
4 -1 2 280.07 19.5
4 -1 2 268.07 18.7
4 -1 2 264.27 19.2
-4 1 -3 227.88 17.3
-4 1 -3 232.58 15.7
4 -1 3 229.18 16.2
4 -1 3 220.88 14.8
4 -1 3 235.28 16.3
4 -1 3 237.68 17.3
4 -1 3 222.98 16.5
-4 1 -4 121.89 9.2
4 -1 4 116.99 10.5
4 -1 4 137.59 11.7
-4 1 -5 99.69 7.5
4 -1 5 84.39 10.8
4 -1 5 97.09 10.8
-4 1 -6 21.6 3.2
4 -1 6 35.1 6.4
4 -1 6 25.4 6.1
4 -1 7 6.9 4.2
4 -1 7 -2 2.4
4 -1 8 66.69 11.4
4 -1 8 59.59 9.8
4 -1 9 40.1 8.8
4 -1 9 38.9 9.3
4 -1 10 157.08 19.7
4 -1 10 175.68 21.7
4 -1 11 98.49 15.9
4 -1 11 101.19 16.6
4 -1 12 14.5 7.7
4 -1 12 -2.3 6.7
-4 2 12 19.4 7.6
-4 2 11 27.8 8.2
-4 2 11 23.2 8.6
-4 2 10 172.88 19.3
-4 2 10 132.69 18
-4 2 9 110.39 14.2
-4 2 9 131.29 16.1
-4 2 9 115.69 15.3
-4 2 8 3.2 4.4
-4 2 8 4.7 4.1
-4 2 8 -0.4 3.7
4 -2 -8 1.3 4.6
-4 2 7 31.7 6.9
-4 2 7 35.4 7.1
-4 2 7 32.4 6.7
4 -2 -7 37.6 8.5
-4 2 6 83.79 10.6
-4 2 6 95.79 10.6
-4 2 6 88.99 10.8
4 -2 -6 89.89 12.8
-4 2 5 30.3 5.1
-4 2 5 30.9 5.7
4 -2 -5 22.1 6.4
-4 2 4 95.49 9.4
-4 2 4 98.99 8.7
4 -2 -4 101.49 7.2
4 -2 -4 108.89 13.2
-4 2 3 239.98 16.4
-4 2 3 235.58 17.5
4 -2 -3 246.48 19.8
4 -2 -3 240.38 16
-4 2 2 141.29 9.5
-4 2 2 136.49 11
-4 2 2 138.69 9.2
-4 2 2 134.59 10.5
4 -2 -2 133.19 12.6
4 -2 -2 113.89 10.9
-4 2 1 21.9 4.2
-4 2 1 27.3 3.3
4 -2 -1 35.2 6
4 -2 -1 12.7 2.9
-4 2 0 6707.83 401.16
4 -2 0 6923.51 402.96
4 -2 0 5751.62 402.56
4 -2 0 6557.34 400.16
-4 2 -1 36 4.1
-4 2 -1 25.4 4.9
4 -2 1 33.8 5.8
4 -2 1 30.2 3.8
4 -2 1 25 4.8
-4 2 -2 129.39 9.6
-4 2 -2 124.39 11.2
4 -2 2 119.79 10
4 -2 2 115.99 10.8
-4 2 -3 214.48 17
-4 2 -3 216.08 15.2
4 -2 3 208.28 16.1
4 -2 3 203.18 15.9
4 -2 3 234.98 16.8
4 -2 3 222.88 15.4
-4 2 -4 89.29 7.3
4 -2 4 84.99 8.1
4 -2 4 80.69 9.7
-4 2 -5 24.2 3.6
4 -2 5 19.9 5.4
4 -2 5 25.1 4.7
-4 2 -6 89.69 7.6
4 -2 6 96.19 10.9
4 -2 6 97.29 12.5
4 -2 7 24.3 6.6
4 -2 7 21.8 5.9
4 -2 8 -0.3 3.4
4 -2 8 3.2 4
4 -2 9 100.09 15.3
4 -2 9 119.69 15.3
4 -2 10 221.38 20.8
4 -2 10 188.48 23
4 -2 11 48.8 11.4
4 -2 11 38.5 10.1
4 -2 12 29.9 10.1
-4 3 12 15.4 7.7
-4 3 11 14.2 7.5
-4 3 10 49.9 10.6
-4 3 9 97.39 13.8
-4 3 9 99.59 13
-4 3 9 78.49 12
-4 3 8 44.8 9.2
-4 3 8 79.69 10.6
-4 3 8 64.69 10.3
4 -3 -8 61.49 12
-4 3 7 138.99 15.6
-4 3 7 129.49 13.8
4 -3 -7 125.49 16.9
-4 3 6 127.59 14
-4 3 6 108.79 10.7
4 -3 -6 124.69 16
-4 3 5 35.6 6.5
-4 3 5 40.1 5.4
4 -3 -5 31.4 3.9
4 -3 -5 40.7 8.3
-4 3 4 278.17 19.5
-4 3 4 280.87 21.4
4 -3 -4 294.17 19.2
-4 3 3 257.57 18.3
-4 3 3 243.98 18.6
-4 3 3 253.77 16.5
-4 3 3 243.68 18.1
-4 3 3 254.57 16.8
4 -3 -3 268.47 17.5
-4 3 2 0.5 2
-4 3 2 0.2 1.6
-4 3 2 1.5 1.4
4 -3 -2 1.5 1.4
4 -3 -2 2.1 2.4
-4 3 1 81.19 7.2
-4 3 1 81.09 7.3
-4 3 1 92.39 9.5
4 -3 -1 92.79 9.6
-4 3 0 200.58 14.1
4 -3 0 184.78 12.9
-4 3 -1 88.19 7.7
-4 3 -1 87.89 9.6
4 -3 1 78.89 9.2
4 -3 1 76.09 7.2
4 -3 1 94.39 9.9
-4 3 -2 -1.2 2.6
-4 3 -2 2.2 1.8
4 -3 2 -1.8 1.8
4 -3 2 4.7 2.6
4 -3 2 -0.2 2.3
-4 3 -3 250.27 17.1
-4 3 -3 226.18 18.9
4 -3 3 231.38 18
4 -3 3 244.28 18.3
4 -3 3 237.38 16.6
-4 3 -4 269.57 19.3
4 -3 4 309.47 22
4 -3 4 281.77 19.8
4 -3 4 278.17 19.7
4 -3 4 265.37 17.6
4 -3 4 276.87 19.7
-4 3 -5 32.1 4.5
4 -3 5 33.6 6.6
4 -3 5 32 5.4
-4 3 -6 93.79 8.6
4 -3 6 113.39 13.8
4 -3 6 112.49 11.6
4 -3 7 117.39 13.3
4 -3 7 124.79 15.5
4 -3 8 56.59 11.5
4 -3 8 71.49 10.7
4 -3 9 110.59 14.7
4 -3 9 136.79 17.6
4 -3 10 77.69 12.8
4 -3 10 75.69 13.2
4 -3 11 30.6 9.7
4 -3 12 17.5 8.5
-4 4 12 18.2 8.3
-4 4 11 12.8 7.3
-4 4 10 16.4 6.9
-4 4 9 95.99 13.7
-4 4 9 128.59 16
-4 4 8 66.39 10.9
-4 4 8 60.09 9.4
4 -4 -8 61.09 12.9
-4 4 7 85.09 10.6
-4 4 7 120.19 14
4 -4 -7 92.29 15
-4 4 6 71.39 10.3
4 -4 -6 55.69 11.3
-4 4 5 72.99 9.4
4 -4 -5 68.19 6.5
-4 4 4 0.4 2.2
4 -4 -4 6.5 2.2
-4 4 3 468.95 30.7
-4 4 3 486.45 33
-4 4 3 461.55 32.9
-4 4 3 482.25 32.6
4 -4 -3 456.05 31.3
-4 4 2 142.59 11
-4 4 2 140.09 11.4
-4 4 2 141.59 13.4
4 -4 -2 144.09 14
4 -4 -2 134.49 11
-4 4 1 892.61 60.99
-4 4 1 944.81 63.69
-4 4 1 912.11 60.69
4 -4 -1 1081.09 64.09
4 -4 -1 930.81 59.39
-4 4 0 1825.12 132.99
-4 4 0 2378.96 136.59
4 -4 0 2416.26 136.39
4 -4 0 1895.71 131.89
-4 4 -1 1069.79 68.69
-4 4 -1 936.91 65.69
4 -4 1 933.81 65.19
4 -4 1 1162.88 68.79
-4 4 -2 148.29 13.8
-4 4 -2 124.99 11
4 -4 2 141.99 11.5
4 -4 2 121.99 12.7
-4 4 -3 449.66 32.1
-4 4 -3 484.15 35.1
4 -4 3 487.55 33.5
4 -4 3 456.15 33.8
4 -4 3 497.75 32.8
4 -4 3 483.75 31.3
-4 4 -4 7.4 5.8
-4 4 -4 6.6 2.6
4 -4 4 4.2 3.3
4 -4 4 3.7 2.2
4 -4 4 6.7 3
-4 4 -5 71.79 8.1
4 -4 5 80.19 8.5
4 -4 5 58.29 9.5
-4 4 -6 74.19 8.3
4 -4 6 70.89 8.9
4 -4 6 79.09 11.5
4 -4 7 105.29 12.3
4 -4 7 119.29 15.1
4 -4 8 52.59 10.9
4 -4 8 61.99 9.6
4 -4 9 105.79 16.1
4 -4 10 22 8.4
4 -4 11 13 7.8
4 -4 12 18.8 8.8
-4 5 12 9.7 7.5
-4 5 11 8.8 6
-4 5 10 17.8 7.6
-4 5 9 41.3 9.7
4 -5 -9 26 10.6
-4 5 8 3.2 5
4 -5 -8 0.1 6.3
-4 5 7 3 3.9
-4 5 6 13.5 5.4
-4 5 5 21.1 5.5
4 -5 -5 20.9 4.2
-4 5 4 49.5 7.6
-4 5 4 58.09 8.4
-4 5 4 58.59 5
-4 5 4 49.1 7.4
4 -5 -4 60.79 7
-4 5 3 33.1 4.8
-4 5 3 30.1 5.4
-4 5 3 46 7.8
-4 5 3 36.2 6.6
4 -5 -3 48 5.9
-4 5 2 249.18 20.8
-4 5 2 233.88 20.8
-4 5 2 239.08 18.1
-4 5 2 256.77 18.3
4 -5 -2 221.28 17.9
4 -5 -2 278.47 22
-4 5 1 210.48 16.5
-4 5 1 220.48 19.9
-4 5 1 243.48 17.6
4 -5 -1 250.47 20.7
-4 5 0 36.5 7.3
-4 5 0 50.49 6.6
4 -5 0 39 7.3
4 -5 0 55.09 5.5
-4 5 -1 216.78 17.1
-4 5 -1 221.28 19.8
4 -5 1 227.38 19.8
4 -5 1 227.88 16.6
-4 5 -2 236.68 17.5
-4 5 -2 227.28 20.3
4 -5 2 204.98 19
4 -5 2 223.28 17.2
-4 5 -3 41.9 6
-4 5 -3 44.9 9
4 -5 3 34.4 6.3
4 -5 3 36.2 7.3
-4 5 -4 56.19 10.6
-4 5 -4 44.8 6.8
4 -5 4 58.99 6.3
4 -5 4 44.5 8
4 -5 4 55.59 7.4
4 -5 4 52.19 8.2
-4 5 -5 20.8 4.6
4 -5 5 17.9 3.8
4 -5 5 20.9 5.8
4 -5 5 20.2 4.5
-4 5 -6 12.4 4
4 -5 6 8.5 4.8
4 -5 6 21.9 4.7
4 -5 7 9.2 4.2
4 -5 7 6.5 4.9
4 -5 8 -1.2 4.6
4 -5 9 32.2 9.6
4 -5 10 18 7.6
4 -5 11 -2.9 4.9
4 -5 12 4.9 7.2
-4 6 11 20.9 8.8
-4 6 10 64.79 13.1
-4 6 9 1.7 5
4 -6 -9 8.3 9.1
-4 6 8 47.2 10.2
4 -6 -8 42.8 12.6
-4 6 7 7.7 4.9
-4 6 6 65.89 10.5
-4 6 5 104.49 10.5
-4 6 5 107.89 13
-4 6 5 124.39 10.7
4 -6 -5 111.59 10.4
-4 6 4 3.2 2.8
-4 6 4 2.3 3
-4 6 4 3.7 3.2
-4 6 4 2.1 2
4 -6 -4 1.4 2.4
-4 6 3 3.9 3.4
-4 6 3 1 2.1
-4 6 3 2.1 2.4
-4 6 3 0 3.2
4 -6 -3 -0.3 2.2
-4 6 2 34.4 7.5
-4 6 2 42.2 8.2
-4 6 2 29.6 5.4
-4 6 2 43.8 6.2
4 -6 -2 38.7 8.7
4 -6 -2 47.8 6.4
-4 6 1 83.99 10.4
-4 6 1 98.99 9
-4 6 1 119.69 15.7
4 -6 -1 106.99 14.6
-4 6 0 46.3 9.7
-4 6 0 43.9 6.4
4 -6 0 25.3 7.4
4 -6 0 40.5 5.2
-4 6 -1 151.68 20.4
-4 6 -1 96.39 11.2
4 -6 1 106.19 14.3
4 -6 1 112.09 10.1
-4 6 -2 42.6 6.7
-4 6 -2 35.4 8.6
4 -6 2 37.6 6.5
4 -6 2 50.19 10.1
-4 6 -3 -0.2 4.6
-4 6 -3 3.1 2.8
4 -6 3 -1.2 2.1
4 -6 3 6.2 4.8
-4 6 -4 1 2.4
-4 6 -4 -1.2 4.2
4 -6 4 0.7 1.8
4 -6 4 5.6 3.4
4 -6 4 2.8 3.5
4 -6 4 1.8 2.2
-4 6 -5 102.69 11.6
4 -6 5 107.59 13.5
4 -6 5 120.29 9.6
4 -6 5 97.29 11.1
-4 6 -6 72.29 9.2
4 -6 6 53.79 10.4
4 -6 7 13.7 6.7
4 -6 8 38.3 9.9
4 -6 9 4.8 6.5
4 -6 10 44.9 12
4 -6 11 1 6.7
-4 7 11 55.59 12.4
-4 7 10 23.2 8.4
-4 7 9 117.09 17.1
4 -7 -9 132.09 22.8
-4 7 8 1.5 4.5
-4 7 7 35.3 8.4
-4 7 6 93.89 13
-4 7 5 240.78 21.3
-4 7 5 253.57 21
-4 7 5 267.37 18
4 -7 -5 274.47 20.4
-4 7 4 280.07 22.5
-4 7 4 233.78 20.2
-4 7 4 242.88 22.4
-4 7 4 276.97 19.2
4 -7 -4 233.08 19.5
-4 7 3 48.6 7.4
-4 7 3 47.9 10
-4 7 3 48.4 9.8
-4 7 3 56.89 7.9
4 -7 -3 56.89 7.6
-4 7 2 30.1 8
-4 7 2 34.9 6
-4 7 2 18.9 5.9
-4 7 2 26.9 5.2
4 -7 -2 22.1 7.9
4 -7 -2 27.4 5.4
-4 7 1 594.94 39.4
-4 7 1 578.34 37.9
-4 7 1 599.94 43.4
4 -7 -1 484.65 41.7
-4 7 0 -0.1 3.4
-4 7 0 -0.5 2.4
4 -7 0 3.3 2.3
4 -7 0 1.6 4.9
-4 7 -1 567.04 41.5
-4 7 -1 634.04 46.8
4 -7 1 596.34 40.7
4 -7 1 604.54 46.5
-4 7 -2 33.6 6.2
-4 7 -2 33.3 9.2
4 -7 2 15.3 5.1
4 -7 2 30.3 6
-4 7 -3 49.1 7.7
-4 7 -3 55.29 12.1
4 -7 3 50.19 8.1
4 -7 3 46.9 9.9
-4 7 -4 241.78 19.2
4 -7 4 231.98 21.2
4 -7 4 227.38 20.3
-4 7 -5 247.28 20
4 -7 5 248.28 21.3
4 -7 5 234.48 21.6
-4 7 -6 70.39 10.3
4 -7 6 79.79 12.6
4 -7 6 89.79 9.6
4 -7 7 39.2 9.9
4 -7 8 16.1 7.6
4 -7 9 100.59 16.6
4 -7 10 16.6 8.9
4 -7 11 27.7 11.2
-4 8 10 14.4 7.4
4 -8 -10 30.2 14
-4 8 9 74.89 13.8
-4 8 8 19.6 7.4
-4 8 7 8.4 5
-4 8 6 21 6.6
-4 8 5 31.6 7.6
-4 8 5 23.7 6.8
-4 8 5 16.5 5.5
-4 8 5 20 4.1
4 -8 -5 19.4 5.2
-4 8 4 171.28 14.3
-4 8 4 191.38 18.9
-4 8 4 159.18 15.3
-4 8 4 160.18 17.3
4 -8 -4 152.28 14.7
-4 8 3 39.2 9.4
-4 8 3 42 7.2
-4 8 3 44.4 9.8
-4 8 3 46.7 7.4
4 -8 -3 52.99 7.9
-4 8 2 14.5 6
-4 8 2 16.3 4.9
-4 8 2 15.6 4.4
-4 8 2 17.2 6.4
-4 8 1 14.3 4.5
-4 8 1 13.7 6.5
-4 8 1 22 7.4
-4 8 1 23.5 4.6
-4 8 0 -0.3 2.5
-4 8 0 0.2 4
4 -8 0 1.6 2.4
4 -8 0 2.2 6
-4 8 -1 33.3 10.4
-4 8 -1 11.6 4.6
4 -8 1 22 5.1
4 -8 1 17.8 6.2
-4 8 -2 15.4 5
4 -8 2 10.5 4.4
4 -8 2 11.4 4.7
-4 8 -3 52.79 8.3
4 -8 3 42.5 9.5
4 -8 3 31.3 7.3
-4 8 -4 141.99 15.2
4 -8 4 165.28 17.8
4 -8 4 146.09 16.6
-4 8 -5 20.8 5.7
4 -8 5 21.4 7.1
4 -8 5 22.5 6.7
-4 8 -6 10.6 4.9
4 -8 6 10.5 4.6
4 -8 6 5.1 5.6
4 -8 7 16 7.4
4 -8 8 39.7 11.5
4 -8 9 48.6 12.3
4 -8 10 19.6 9.5
-4 9 10 6.7 6.3
4 -9 -10 17.3 13.4
-4 9 9 -4.6 4.5
-4 9 8 -1.8 4.5
-4 9 7 9.5 5.5
-4 9 6 20.4 5.8
-4 9 6 14.1 5.9
-4 9 6 26.1 7.6
-4 9 5 94.29 12.5
-4 9 5 68.49 8.8
-4 9 5 77.19 12.1
-4 9 5 87.99 13.6
4 -9 -5 63.89 9.9
-4 9 4 114.29 13.6
-4 9 4 131.69 13.8
-4 9 4 102.59 16.6
-4 9 4 126.49 17.8
4 -9 -4 137.29 14.5
-4 9 3 98.19 11.9
-4 9 3 123.29 13.4
-4 9 3 96.09 15.9
4 -9 -3 97.39 12.2
-4 9 2 6.5 3.5
-4 9 2 8.7 4
-4 9 2 10.7 6.1
-4 9 1 133.39 15.1
-4 9 1 133.19 19.8
-4 9 1 158.88 13
-4 9 0 5.5 4
4 -9 0 4.7 3.5
-4 9 -1 150.88 16.8
4 -9 1 156.78 14.3
-4 9 -2 7.6 4.4
4 -9 2 13.3 4.9
-4 9 -3 108.99 14
4 -9 3 112.79 14.2
-4 9 -4 120.79 13.9
4 -9 4 98.59 16.2
4 -9 4 109.99 14.3
-4 9 -5 71.19 10.7
4 -9 5 56.69 11
4 -9 5 64.79 11.8
-4 9 -6 19.1 6.4
4 -9 6 27.8 7.4
4 -9 6 10.2 6.5
4 -9 7 14.2 8.1
4 -9 8 -1.4 5.3
4 -9 9 8.1 7.2
4 -9 10 -0.5 8.1
-4 10 9 5.7 6.8
-4 10 8 15.9 7.6
-4 10 7 16.3 6.3
-4 10 6 84.09 12.6
-4 10 6 83.49 13
-4 10 6 82.39 13.2
-4 10 5 65.09 13.3
-4 10 5 122.29 11.9
-4 10 5 100.09 13.2
-4 10 5 93.89 14.2
4 -10 -5 98.49 12.9
-4 10 4 86.99 11.9
-4 10 4 85.89 11.7
-4 10 4 107.69 17.1
4 -10 -4 78.49 11.8
-4 10 3 1.3 5.2
-4 10 3 -0.6 3.3
-4 10 3 -3.5 3.2
4 -10 -3 0.9 3.9
-4 10 2 185.88 14.7
-4 10 2 108.69 22.2
-4 10 2 162.08 17.2
-4 10 1 1.2 3.5
-4 10 0 415.26 32.4
4 -10 0 421.26 30.3
-4 10 -1 8.8 4.8
4 -10 1 7.1 4.7
-4 10 -2 182.78 19.9
4 -10 2 185.58 17.6
-4 10 -3 -4 3.5
4 -10 3 -5.2 4.1
-4 10 -4 87.09 12.9
4 -10 4 88.09 13.4
-4 10 -5 72.49 11.5
4 -10 5 104.59 15.6
-4 10 -6 62.59 10.8
4 -10 6 57.09 11.6
4 -10 6 91.29 14.6
4 -10 7 15.3 8.3
4 -10 7 7.9 4.3
4 -10 8 12 9.3
4 -10 9 6.4 7.9
-4 11 9 65.09 14.2
-4 11 8 5.5 5.8
-4 11 7 14.3 6.8
-4 11 6 0.8 4.3
-4 11 6 8.7 7.4
-4 11 6 13.5 5.9
-4 11 5 -1.7 4.3
-4 11 5 -0.8 3.1
-4 11 5 4.8 5.9
4 -11 -5 -1.2 4.3
-4 11 4 22.2 8.5
-4 11 4 15.7 5.8
-4 11 4 19.5 6
4 -11 -4 23.6 7
-4 11 3 15.9 5.6
-4 11 3 5 4.7
-4 11 2 76.19 10.3
-4 11 2 86.69 12.4
-4 11 1 11.7 4.9
-4 11 0 86.49 13.1
-4 11 -1 15.7 6.1
4 -11 1 33 8.4
-4 11 -2 83.19 12.7
4 -11 2 63.09 10.8
-4 11 -3 17.7 6.4
4 -11 3 9.7 6.4
-4 11 -4 28.9 8.2
4 -11 4 26.7 8.5
-4 11 -5 -1.6 4.8
4 -11 5 1.1 6.6
-4 11 -6 10.3 6.4
4 -11 6 9.7 7.2
4 -11 7 16.9 9.3
4 -11 8 10.4 8.9
4 -11 9 32.8 11.7
-4 12 8 48 12
-4 12 7 7 6.4
-4 12 6 3.3 5.1
-4 12 5 0.6 6.5
-4 12 5 0.4 4.7
4 -12 -5 5.9 5.5
-4 12 4 60.99 10.5
-4 12 4 56.99 10.1
-4 12 3 37.6 7.8
-4 12 3 65.89 10.6
-4 12 2 77.79 12.4
-4 12 1 55.09 10.1
-4 12 0 95.49 14.4
-4 12 -1 43.6 9.7
-4 12 -2 69.59 12.2
-4 12 -3 46.2 10.2
4 -12 3 47.4 10.8
-4 12 -4 21 7.7
4 -12 4 40.7 10.2
-4 12 -5 2.5 5.4
4 -12 5 6.2 7.4
-4 12 -6 -1.2 5.5
4 -12 6 -2.6 6.9
4 -12 7 -2.6 7.2
4 -12 8 25.9 11
-4 13 7 7.5 6.5
-4 13 6 9.6 6.8
-4 13 5 1.7 5
-4 13 5 5.5 11.4
-4 13 4 28 8
-4 13 4 34.2 8.1
-4 13 3 9 5.7
-4 13 2 4 4.7
-4 13 1 5.4 5.3
-4 13 0 45.2 10.1
-4 13 -1 4.4 5.1
-4 13 -2 20.8 7.4
-4 13 -3 9.8 6.7
-4 13 -4 28.6 9.2
4 -13 4 16 8.3
-4 13 -5 3.6 6.9
4 -13 5 0.9 6.8
-4 13 -6 19 8.3
4 -13 6 4.4 8.5
4 -13 7 12 10
-4 14 4 38.7 9.4
-4 14 3 2.8 5.4
-4 14 2 23.6 8.5
-4 14 1 1.9 5.4
-4 14 0 41.1 10
-4 14 -1 15.3 7.5
-4 14 -2 24.7 9.2
-4 14 -3 -0.5 5.4
-4 14 -4 36.6 10.9
-4 14 -5 -1.9 6.2
-4 15 4 5.3 6.3
-4 15 3 10.7 7.1
-4 15 2 21.6 8.7
-4 15 1 15.4 8.2
-4 15 0 20.3 9.3
-4 15 -1 1 6.1
-4 15 -2 25.1 9.3
-4 15 -3 17.8 8.2
-4 15 -4 12 8.2
-5 -15 3 5.7 8.4
-5 -15 3 7.5 8
5 15 -3 -1.4 6
5 15 -2 25.4 9.5
5 15 -1 5.2 7.2
5 15 0 31.2 9.6
-5 -15 -1 16.4 7.3
5 15 1 -0.2 5.4
-5 -15 -2 23.4 8.5
5 15 2 30.5 9.1
-5 -15 -3 19.6 7.9
5 15 3 2.3 6.1
-5 -14 5 28.2 11.1
5 14 -5 20.4 9.2
-5 -14 4 11.7 8.4
5 14 -4 -3.9 5.8
-5 -14 3 23.9 9
5 14 -3 30.1 9.7
5 14 -2 -4.3 5
5 14 -1 63.09 12.5
-5 -14 0 3.4 4.8
5 14 0 1 5.4
-5 -14 -1 53.09 11
5 14 1 45.1 10.6
-5 -14 -2 6.7 5.9
5 14 2 -4.4 4.8
-5 -14 -3 43.6 10.2
5 14 3 32.4 9.9
-5 -14 -4 17.5 7.7
5 14 4 1.7 5.6
-5 -14 -5 17.9 8
5 14 5 23.6 8.9
-5 -13 7 13.1 9.2
-5 -13 6 5 8.4
-5 -13 5 -0.9 6.6
5 13 -5 3.9 6.7
-5 -13 4 1.2 6.1
-5 -13 4 0.7 5.1
5 13 -4 3 6.2
5 13 -3 11.9 7.3
5 13 -2 5.8 6.3
-5 -13 1 25.2 7.4
5 13 -1 31.8 9.3
-5 -13 0 -3.3 3.7
5 13 0 -0.4 4.5
-5 -13 -1 24.1 7.3
5 13 1 26.8 8.5
-5 -13 -2 10.3 5.9
5 13 2 9.1 5.7
-5 -13 -3 30.2 8.2
5 13 3 24.4 7.9
-5 -13 -4 -1.4 4.7
5 13 4 5.2 5.5
-5 -13 -5 13.4 6.9
5 13 5 7.1 5.2
-5 -13 -6 23 7.8
5 13 6 12.9 8
5 13 7 5.6 7.6
-5 -12 8 18.4 10
-5 -12 7 13 9.2
-5 -12 6 6.7 7.1
-5 -12 5 29.9 9.9
-5 -12 5 30.9 9.9
5 12 -5 36 9.6
-5 -12 4 -4.1 4.7
-5 -12 4 0.8 5.1
5 12 -4 5.1 6.2
5 12 -3 9.4 6.3
5 12 -2 49.8 10.6
-5 -12 1 3.5 4.4
5 12 -1 -1.9 4.2
-5 -12 0 41.7 8.4
-5 -12 -1 4.6 4.9
5 12 1 0.9 3.8
-5 -12 -2 67.19 11.2
5 12 2 62.79 11.4
-5 -12 -3 22.7 7
5 12 3 23.9 7.5
-5 -12 -4 6 5.6
5 12 4 0.8 4.7
5 12 4 -0.3 4.1
-5 -12 -5 35 8.8
5 12 5 41.4 8.5
-5 -12 -6 4.7 5.5
5 12 6 8.1 7.3
5 12 7 11.3 8.5
5 12 8 8.8 7.6
-5 -11 9 5.5 8.5
-5 -11 8 25.7 9.9
-5 -11 7 29.6 10.5
-5 -11 6 17.5 8
-5 -11 6 22.4 7.2
-5 -11 5 9.6 6.3
-5 -11 5 7.3 6
5 11 -5 9 6.5
-5 -11 4 8.6 6
-5 -11 4 13.8 6.9
5 11 -4 15 6.9
5 11 -3 16.2 6.7
5 11 -2 0.8 4.2
-5 -11 1 58.99 9.1
5 11 -1 39.2 9.1
-5 -11 0 8.9 4.6
5 11 0 2.9 4.7
-5 -11 -1 39.7 8.2
5 11 1 67.69 11
-5 -11 -2 6 4
5 11 2 8.4 5.2
-5 -11 -3 21.9 6.9
5 11 3 31.3 7.6
5 11 3 20.6 6.5
-5 -11 -4 21.4 6.9
5 11 4 22.3 6.6
5 11 4 12.1 6.4
-5 -11 -5 6.5 5.4
5 11 5 14.7 5.1
5 11 5 18.8 7.3
5 11 5 3.7 5.5
-5 -11 -6 26.8 7.9
5 11 6 7.3 6.8
5 11 6 10.6 6.1
5 11 7 19.3 8.8
5 11 8 66.89 14.5
-5 -10 9 7.8 8.2
-5 -10 8 0.8 6.6
-5 -10 7 23.4 9.4
-5 -10 6 59.19 13.4
-5 -10 6 54.09 11.8
-5 -10 6 51.59 9.6
-5 -10 5 45.2 10.6
-5 -10 5 37.2 9.1
-5 -10 5 43.3 9.6
5 10 -5 56.49 10.1
-5 -10 4 14 7.2
5 10 -4 6.5 5.1
5 10 -4 17 7.1
-5 -10 3 45.5 10.2
5 10 -3 93.49 12.3
5 10 -3 43 9.8
-5 -10 2 19.2 5.4
5 10 -2 19 6.4
5 10 -2 11.5 6.1
-5 -10 1 75.69 10.6
5 10 -1 132.69 17.6
5 10 -1 85.09 12.5
-5 -10 0 135.59 15.2
5 10 0 160.38 16.9
-5 -10 -1 78.19 10.5
5 10 1 76.09 11.3
-5 -10 -2 13 5.7
5 10 2 22 6.2
5 10 2 17.5 5.3
-5 -10 -3 73.89 10.4
5 10 3 64.49 10.1
5 10 3 68.39 10.2
5 10 3 39.1 15.4
-5 -10 -4 15 5.6
5 10 4 11.9 5.8
5 10 4 14.5 5.1
5 10 4 4.7 5.2
-5 -10 -5 34.9 8.1
5 10 5 28 8.6
5 10 5 42.1 7.8
5 10 5 44.3 9.7
-5 -10 -6 74.69 10.9
5 10 6 28.2 8.1
5 10 6 52.29 10.7
5 10 6 49.1 10.8
5 10 7 31.5 8.5
5 10 7 34.5 9.7
5 10 8 12.1 8.6
5 10 9 0.1 7
-5 -9 10 -1 5.6
-5 -9 9 13.2 8.1
-5 -9 8 39.9 11.7
-5 -9 7 23.3 9.2
-5 -9 6 60.29 9.4
-5 -9 6 66.39 13.4
-5 -9 6 77.09 13.6
-5 -9 5 62.49 12.3
-5 -9 5 65.69 11
-5 -9 5 56.29 10.8
5 9 -5 66.09 11.2
5 9 -5 78.89 11.1
-5 -9 4 183.38 18.5
-5 -9 4 170.28 19.5
5 9 -4 198.08 18.4
5 9 -4 156.18 17.6
-5 -9 3 117.49 15.3
5 9 -3 62.89 11.6
5 9 -3 117.09 13.5
-5 -9 2 266.27 20.5
5 9 -2 245.58 21.5
5 9 -2 256.07 23.4
-5 -9 1 72.89 9.5
5 9 -1 105.19 14.7
5 9 -1 57.29 9.8
-5 -9 0 43.9 7.4
5 9 0 50.39 10.4
5 9 0 45.4 8.5
-5 -9 -1 65.09 9.3
5 9 1 73.49 13.1
5 9 1 61.19 9.6
5 9 1 81.69 9.5
-5 -9 -2 278.47 20.5
5 9 2 203.18 22.7
5 9 2 256.17 19.7
5 9 2 216.98 19.7
-5 -9 -3 107.79 12.7
5 9 3 90.29 15.8
5 9 3 116.29 13.1
5 9 3 102.89 12.7
-5 -9 -4 180.28 16.4
5 9 4 168.98 15.5
5 9 4 164.28 19
5 9 4 177.48 17.1
-5 -9 -5 71.59 10.5
5 9 5 75.69 11.8
5 9 5 47.1 9.7
5 9 5 74.49 14.9
5 9 5 82.69 9.9
-5 -9 -6 52.99 9.2
5 9 6 62.89 12.1
5 9 6 41.5 8.8
5 9 6 50.79 10.2
5 9 7 35.1 10.2
5 9 7 38.7 7.9
5 9 8 39.8 11.5
5 9 9 11.4 7.7
5 9 10 2.7 6
-5 -8 10 2.3 4.8
-5 -8 9 4.8 6.1
-5 -8 8 43.8 12.1
-5 -8 7 2.8 5.3
-5 -8 6 62.19 12.1
-5 -8 6 57.49 12.4
-5 -8 5 16.1 6.3
-5 -8 5 15 6.5
-5 -8 5 8 4.4
5 8 -5 18.5 5.8
-5 -8 4 58.29 10.6
-5 -8 4 39 8.5
5 8 -4 38 7.3
5 8 -4 28 7.6
-5 -8 3 45.5 10.2
-5 -8 3 28.3 7.2
5 8 -3 46.5 9
5 8 -3 23.5 6
-5 -8 2 37.9 9.7
-5 -8 2 41.1 6.7
5 8 -2 40.9 8.8
5 8 -2 40.6 7.6
-5 -8 1 102.99 16.6
-5 -8 1 88.09 10.4
5 8 -1 101.39 12.1
5 8 -1 84.99 13.3
-5 -8 0 486.15 33
5 8 0 431.76 33.2
5 8 0 478.95 36.1
5 8 0 460.25 31.1
5 8 0 434.66 37.3
-5 -8 -1 87.99 10.2
-5 -8 -1 104.09 17.1
5 8 1 58.39 11.2
5 8 1 81.59 10.7
5 8 1 97.29 13.7
5 8 1 99.49 10
-5 -8 -2 36.8 6.7
5 8 2 25.3 6.3
5 8 2 63.79 11.6
5 8 2 59.69 13.2
5 8 2 43.4 7.4
5 8 2 52.49 7.5
-5 -8 -3 30.4 6.4
5 8 3 44.3 10.7
5 8 3 31.4 6.6
5 8 3 40.2 10.8
5 8 3 30.1 6.2
-5 -8 -4 37.5 7.1
5 8 4 47.7 8.6
5 8 4 54.99 12.1
5 8 4 47.1 7.4
5 8 4 38.3 8.5
-5 -8 -5 19.3 5.8
5 8 5 7.4 4.9
5 8 5 9 5.4
5 8 5 11.6 3.8
5 8 5 9.8 6.5
-5 -8 -6 49.3 8.4
5 8 6 43.2 8.6
5 8 6 61.79 10.8
5 8 6 61.29 10.7
5 8 7 0.3 5
5 8 8 20.9 8.9
5 8 9 -0.5 5.9
5 8 10 17.1 8.9
-5 -7 11 -0.1 5.4
-5 -7 10 19.3 8.4
-5 -7 9 14.4 7.8
-5 -7 8 133.99 19.2
-5 -7 7 17.7 6.8
-5 -7 6 146.99 18
-5 -7 5 12.7 6.3
-5 -7 5 15.4 5.3
-5 -7 5 19.7 5.3
5 7 -5 16.8 5.7
5 7 -5 18.3 5.3
-5 -7 4 21.6 6.3
-5 -7 4 12.2 5.6
5 7 -4 18.1 5.9
5 7 -4 20.1 5.2
-5 -7 3 24.1 7.3
-5 -7 3 21.8 6.2
5 7 -3 16.6 4.8
5 7 -3 16 5.6
5 7 -3 21.4 8.1
-5 -7 2 46.9 10.2
-5 -7 2 42.8 6.1
5 7 -2 48.7 10.6
5 7 -2 31.9 9.1
5 7 -2 41.2 7.1
5 7 -2 55.89 9.4
-5 -7 1 9 3.3
-5 -7 1 13.6 6.7
5 7 -1 14.5 4.4
5 7 -1 7.1 2.3
5 7 -1 4.1 5.6
5 7 -1 -2.9 3.2
5 7 -1 9.7 5.7
-5 -7 0 61.09 11.5
-5 -7 0 48.3 6.9
5 7 0 60.69 13.8
5 7 0 50.59 6.1
5 7 0 42.4 8.6
5 7 0 24.6 7
5 7 0 47.9 7.4
-5 -7 -1 6.5 3.4
-5 -7 -1 10.5 6.5
-5 -7 -1 10.2 3.7
5 7 1 4.6 2.8
5 7 1 4 4.3
5 7 1 2.1 4.2
5 7 1 4.9 4.8
5 7 1 9.8 3.8
-5 -7 -2 43.4 6.8
-5 -7 -2 60.89 13
-5 -7 -2 36.3 8.7
5 7 2 37 8.5
5 7 2 36.7 6.5
5 7 2 37.7 6.5
5 7 2 34.2 7.7
5 7 2 45.2 10.8
-5 -7 -3 14.9 7.1
-5 -7 -3 20.4 10.2
-5 -7 -3 21.3 4.9
5 7 3 13.9 5.8
5 7 3 11.7 4.7
5 7 3 17.6 4.9
5 7 3 17.9 4.6
5 7 3 10.4 5.7
-5 -7 -4 12.8 4.3
5 7 4 19.1 5.4
5 7 4 14.5 5.5
5 7 4 21.6 4.8
5 7 4 13.9 6.3
-5 -7 -5 7.5 4.2
5 7 5 13.9 6.4
5 7 5 17.7 5.5
5 7 5 13.4 3.7
5 7 5 11.5 5.5
-5 -7 -6 112.89 13.1
5 7 6 129.09 16.1
5 7 6 127.29 13.5
5 7 6 135.19 13.2
5 7 7 17.5 6.8
5 7 8 95.79 15.6
5 7 9 5.5 6.2
5 7 10 33 10.7
5 7 11 -0.6 5.2
-5 -6 11 10.4 6.5
-5 -6 10 14.7 7.6
-5 -6 9 64.99 13.5
-5 -6 8 10.3 6.8
-5 -6 7 53.79 10.9
-5 -6 6 24.9 7
-5 -6 5 3 4.5
-5 -6 5 4.6 3.8
5 6 -5 5.1 3.6
5 6 -5 9.1 3.8
-5 -6 4 65.79 9.6
-5 -6 4 58.69 10.4
5 6 -4 67.39 8.3
5 6 -4 49 8.4
-5 -6 3 45.9 8.5
-5 -6 3 63.89 10.9
5 6 -3 63.29 9.5
5 6 -3 52.99 10.5
5 6 -3 62.49 8.3
-5 -6 2 22.6 6.4
-5 -6 2 18.5 3.8
5 6 -2 10.8 5.3
5 6 -2 15 4.2
5 6 -2 11.3 4.5
5 6 -2 17.6 6.4
-5 -6 1 117.59 15.6
-5 -6 1 72.39 8.3
-5 -6 1 72.19 11
5 6 -1 78.69 6.5
5 6 -1 84.69 9.6
5 6 -1 68.89 10.3
5 6 -1 60.09 10.8
-5 -6 0 50.79 7.2
5 6 0 54.79 6.5
5 6 0 76.39 13.5
5 6 0 72.59 8.6
5 6 0 85.59 16.4
5 6 0 73.09 10.2
-5 -6 -1 76.39 12.5
-5 -6 -1 92.59 9.6
-5 -6 -1 91.99 12.7
5 6 1 93.99 12.2
5 6 1 83.39 12.9
5 6 1 79.79 9.3
5 6 1 81.99 8.7
5 6 1 55.09 11
-5 -6 -2 11.9 6.2
-5 -6 -2 14.2 4.1
-5 -6 -2 20.5 7.1
5 6 2 23.4 7.5
5 6 2 22.8 5
5 6 2 29.2 5.3
5 6 2 27.5 6.9
5 6 2 30 8
-5 -6 -3 68.39 13.7
-5 -6 -3 46.8 10
-5 -6 -3 73.89 8.7
5 6 3 52.49 8
5 6 3 53.89 9.6
5 6 3 54.29 7.3
5 6 3 46.1 10.3
-5 -6 -4 51.09 7.6
-5 -6 -4 59.69 11
5 6 4 59.09 9.2
5 6 4 63.89 7.6
5 6 4 57.89 9.4
5 6 4 73.89 12.3
-5 -6 -5 8.9 3.9
5 6 5 5.8 4.5
5 6 5 4.7 3.6
5 6 5 7.6 2.8
5 6 5 9.3 4.3
-5 -6 -6 31.3 6.4
5 6 6 32.7 7.9
5 6 7 53.19 10.3
5 6 8 16.5 7
5 6 9 54.39 12.2
5 6 10 16.5 8
5 6 11 51.79 13.4
-5 -5 11 4.8 5.1
-5 -5 9 46.1 10.7
-5 -5 8 369.66 31.1
-5 -5 7 100.29 14.4
-5 -5 6 352.36 28.4
5 5 -6 351.76 27
-5 -5 5 27.9 6.4
5 5 -5 31 5.3
5 5 -5 25.4 5.8
-5 -5 4 611.14 45.7
-5 -5 4 646.94 43.2
5 5 -4 604.94 42
5 5 -4 658.43 44.1
-5 -5 3 198.18 17.2
-5 -5 3 199.68 17.9
5 5 -3 200.48 15.7
5 5 -3 224.88 17.6
5 5 -3 188.98 18.3
-5 -5 2 595.64 44
-5 -5 2 641.64 40.7
-5 -5 2 595.04 43
5 5 -2 630.74 44.7
5 5 -2 619.44 41.5
5 5 -2 606.84 43
5 5 -2 629.44 45
-5 -5 1 93.39 11.4
-5 -5 1 115.19 12.2
-5 -5 1 87.09 8.4
5 5 -1 91.79 12.6
5 5 -1 101.99 11.9
5 5 -1 69.39 11.5
5 5 -1 89.29 7.2
5 5 -1 101.29 10.2
-5 -5 0 821.82 53.09
-5 -5 0 793.82 56.49
5 5 0 788.22 52.09
5 5 0 771.72 56.59
5 5 0 944.31 57.49
5 5 0 786.82 53.49
5 5 0 784.72 55.19
-5 -5 -1 97.49 13.7
-5 -5 -1 110.19 9.3
-5 -5 -1 107.19 14.9
5 5 1 88.09 8.6
5 5 1 95.49 13.4
5 5 1 95.59 10.2
5 5 1 82.09 11.3
-5 -5 -2 634.74 39.9
-5 -5 -2 608.04 43.3
-5 -5 -2 579.64 43.3
5 5 2 536.15 39.4
5 5 2 645.54 43.9
5 5 2 536.15 42.1
5 5 2 595.74 40
5 5 2 597.64 42.2
-5 -5 -3 258.67 22.8
-5 -5 -3 220.38 20.5
-5 -5 -3 213.78 16.7
5 5 3 202.58 16.2
5 5 3 199.58 18.6
5 5 3 208.48 18.8
5 5 3 214.78 20.3
5 5 3 215.28 17.5
-5 -5 -4 676.03 44
-5 -5 -4 622.24 47.3
5 5 4 672.13 43
5 5 4 655.13 45.6
5 5 4 639.64 46.1
5 5 4 655.63 46.5
5 5 4 644.64 45.4
-5 -5 -5 37.5 6.2
5 5 5 43.2 7.4
5 5 5 43.6 4.6
5 5 5 32.7 6.3
5 5 5 25.7 6.3
-5 -5 -6 351.06 25.4
5 5 6 345.47 28.2
5 5 7 104.79 14.4
5 5 8 387.36 32.3
5 5 9 57.99 12.9
5 5 10 83.99 16
5 5 11 28.5 11
-5 -4 12 9.5 5.9
-5 -4 11 2.1 5.4
-5 -4 10 4 5.9
-5 -4 9 67.49 12.4
-5 -4 8 27.6 8.1
-5 -4 7 251.27 22.5
-5 -4 6 39.1 7.9
-5 -4 6 54.39 8.9
-5 -4 6 44.3 5.7
5 4 -6 39.7 7
-5 -4 5 65.49 9.3
-5 -4 5 73.29 10
5 4 -5 73.69 9.4
5 4 -5 67.69 7.3
-5 -4 4 66.39 10.8
-5 -4 4 62.29 8.6
5 4 -4 71.19 9.1
5 4 -4 72.79 7.5
-5 -4 3 470.85 33.6
-5 -4 3 479.55 35.1
5 4 -3 484.25 33.9
5 4 -3 479.75 32
5 4 -3 475.95 34.8
-5 -4 2 97.09 10.9
-5 -4 2 75.79 6.7
-5 -4 2 67.39 9.2
5 4 -2 76.99 9.7
5 4 -2 63.59 9.7
5 4 -2 82.19 8.1
-5 -4 1 55.99 6
-5 -4 1 51.79 8.7
-5 -4 1 73.19 10.3
5 4 -1 29.2 5.8
5 4 -1 42.6 6.6
5 4 -1 47.5 5.9
5 4 -1 50.29 7.8
5 4 -1 44.7 4.1
-5 -4 0 4.7 3.3
-5 -4 0 3.2 2.2
-5 -4 0 0.1 1.9
5 4 0 1.7 3
5 4 0 2.1 1.6
5 4 0 -1.9 2.3
5 4 0 2.9 2.2
5 4 0 0.2 4.1
-5 -4 -1 52.19 9
-5 -4 -1 52.49 6.3
-5 -4 -1 49.9 8.8
5 4 1 68.19 9
5 4 1 50.09 6.6
5 4 1 59.49 10.2
5 4 1 41.9 5.6
5 4 1 55.09 9.1
-5 -4 -2 77.89 11.9
-5 -4 -2 86.59 12.3
-5 -4 -2 93.49 8.4
5 4 2 76.99 8.4
5 4 2 86.39 11.5
5 4 2 89.19 12.3
5 4 2 67.19 8.2
5 4 2 85.89 11
-5 -4 -3 550.34 39
-5 -4 -3 522.65 35.1
-5 -4 -3 510.35 38.1
5 4 3 499.45 36.9
5 4 3 475.75 35.7
5 4 3 520.25 37.2
5 4 3 564.04 34.8
5 4 3 506.45 37.6
-5 -4 -4 71.39 11.1
-5 -4 -4 63.09 7.5
5 4 4 61.59 8.8
5 4 4 52.29 9.3
5 4 4 69.49 6.2
5 4 4 74.19 9.7
5 4 4 57.79 8.2
-5 -4 -5 81.49 8.6
5 4 5 71.69 7.7
5 4 5 73.19 7.7
5 4 5 57.89 9.6
-5 -4 -6 40.5 6.2
5 4 6 46.4 8.7
5 4 7 277.47 24.1
5 4 8 31 8.2
5 4 9 52.79 11.1
5 4 10 19.9 8.2
5 4 11 -0.2 5.4
5 4 12 19.7 9.7
-5 -3 12 6.4 6.1
-5 -3 11 0.3 4.3
-5 -3 10 24.9 7.7
-5 -3 10 29.8 9
-5 -3 9 37.3 8.7
-5 -3 9 34.8 9
-5 -3 8 62.99 8.8
-5 -3 8 55.29 10.5
-5 -3 8 78.59 11.5
-5 -3 7 67.39 10.5
-5 -3 7 56.09 7.7
-5 -3 7 55.89 9.4
-5 -3 6 86.39 11.4
-5 -3 6 72.49 8.1
-5 -3 6 78.69 10.4
5 3 -6 76.69 10
-5 -3 5 10.4 2.9
-5 -3 5 13.7 4.4
-5 -3 5 10.5 4.2
5 3 -5 8.8 3.7
-5 -3 4 60.19 8
-5 -3 4 43.4 6.8
5 3 -4 59.99 8
-5 -3 3 217.58 19.1
-5 -3 3 231.28 17.5
5 3 -3 228.98 18
5 3 -3 238.28 18.6
5 3 -3 222.48 16
-5 -3 2 67.19 7.9
-5 -3 2 79.19 8.4
-5 -3 2 68.29 9.3
-5 -3 2 66.59 6.1
-5 -3 2 85.89 8.6
5 3 -2 80.69 9
5 3 -2 78.69 9
5 3 -2 71.59 8.8
5 3 -2 64.49 7
-5 -3 1 32.5 5.4
-5 -3 1 61.59 5.4
-5 -3 1 63.29 6.6
-5 -3 1 53.99 7.2
-5 -3 1 56.29 7.6
5 3 -1 41.6 6.3
5 3 -1 63.49 7.9
5 3 -1 56.59 5.8
5 3 -1 54.79 7.3
-5 -3 0 62.49 9.1
-5 -3 0 57.59 6.1
5 3 0 61.39 6.4
5 3 0 48.8 4.7
5 3 0 49.3 7.8
5 3 0 46.8 7.1
5 3 0 41.5 7.4
-5 -3 -1 73.09 10.4
-5 -3 -1 68.49 7.3
-5 -3 -1 80.69 9.3
5 3 1 68.99 8.8
5 3 1 60.19 6.5
5 3 1 64.89 6.9
5 3 1 73.79 8.5
5 3 1 43 7.5
-5 -3 -2 45.6 7.3
-5 -3 -2 62.49 8.9
-5 -3 -2 72.19 7.3
5 3 2 70.89 8.2
5 3 2 70.19 9.5
5 3 2 66.69 7
5 3 2 70.09 7.6
5 3 2 78.49 9.4
-5 -3 -3 228.98 19.5
-5 -3 -3 242.18 20.1
-5 -3 -3 209.48 16.7
5 3 3 247.48 19.2
5 3 3 240.18 18.7
5 3 3 228.08 18.2
5 3 3 224.88 16.3
5 3 3 226.58 17.7
-5 -3 -4 37.7 8.6
-5 -3 -4 44.9 6.1
5 3 4 63.39 5.1
5 3 4 44.3 6.4
5 3 4 62.29 9
5 3 4 66.39 7.6
5 3 4 70.89 9
-5 -3 -5 15.1 3.6
5 3 5 13.8 4.5
-5 -3 -6 73.49 7.8
5 3 6 63.69 10.2
5 3 7 56.39 10.3
5 3 8 53.89 10.7
5 3 9 24.2 8.5
5 3 10 37.3 10.1
5 3 11 -0.7 6.1
5 3 12 18.7 8.5
-5 -2 12 5 6.3
-5 -2 11 29.8 9.1
-5 -2 10 47.3 11.8
-5 -2 10 29.8 8.9
-5 -2 10 29.6 8
-5 -2 9 145.59 18.7
-5 -2 9 157.88 17.9
-5 -2 9 174.38 15.5
-5 -2 8 40.7 9.1
-5 -2 8 40.4 7.9
-5 -2 8 46 7.6
-5 -2 7 134.39 11.5
-5 -2 7 96.99 12.4
-5 -2 7 103.39 13.9
-5 -2 6 131.89 11.3
-5 -2 6 137.59 14.8
-5 -2 6 112.29 13.4
5 2 -6 129.59 12.3
-5 -2 5 122.39 12.2
-5 -2 5 131.39 10.6
-5 -2 5 131.19 13.3
5 2 -5 119.79 11.7
-5 -2 4 3.8 2
-5 -2 4 0.5 2
-5 -2 4 -2.3 2.4
5 2 -4 2.7 3
-5 -2 3 271.87 20.1
5 2 -3 262.27 20.2
5 2 -3 294.77 20.8
-5 -2 2 116.29 11.2
-5 -2 2 104.09 7.9
-5 -2 2 118.09 9.8
-5 -2 2 107.69 9.4
5 2 -2 104.89 10.1
5 2 -2 96.89 9.9
5 2 -2 113.89 10.6
-5 -2 1 2037.7 119.29
-5 -2 1 1945.51 120.79
-5 -2 1 1860.01 120.69
-5 -2 1 1769.12 120.09
-5 -2 1 1858.01 118.49
5 2 -1 1871.01 120.39
5 2 -1 1815.62 118.69
5 2 -1 1961.9 120.89
5 2 -1 1976.1 121.19
-5 -2 0 267.57 22.7
-5 -2 0 369.66 20.8
-5 -2 0 270.97 20.6
5 2 0 321.27 22.2
5 2 0 333.77 20.9
5 2 0 267.97 23
-5 -2 -1 1995.2 120.09
-5 -2 -1 1849.52 122.39
-5 -2 -1 1924.81 122.19
5 2 1 1927.71 119.69
5 2 1 1792.42 121.69
5 2 1 1797.22 119.79
5 2 1 2167.38 122.99
5 2 1 1869.01 121.29
-5 -2 -2 103.79 10.6
-5 -2 -2 108.59 12
-5 -2 -2 109.29 9.1
5 2 2 131.79 12.2
5 2 2 123.19 10.4
5 2 2 99.59 10.2
5 2 2 106.99 8.7
5 2 2 107.19 9.2
-5 -2 -3 271.47 18.9
-5 -2 -3 257.37 20.9
-5 -2 -3 256.67 21.2
5 2 3 276.77 18.4
5 2 3 288.27 20.2
5 2 3 262.37 20
5 2 3 292.77 20.6
5 2 3 271.77 20.4
-5 -2 -4 -1.4 1.6
5 2 4 2.3 0.9
5 2 4 0.1 2.5
5 2 4 1.4 0.8
5 2 4 -1.4 2.2
5 2 4 2.5 2
5 2 4 2.9 1.9
-5 -2 -5 118.89 10.1
5 2 5 132.19 13.9
5 2 5 136.59 11.9
-5 -2 -6 104.29 9.2
5 2 6 137.59 14.8
5 2 7 127.69 15.8
5 2 8 35 8.1
5 2 9 169.08 20.5
5 2 10 59.99 12.4
5 2 11 32.8 10.6
5 2 12 16.3 8.2
-5 -1 12 20.7 7.6
-5 -1 11 83.89 12.6
-5 -1 11 49.6 10.9
-5 -1 10 20.8 6.3
-5 -1 10 8.9 6.6
-5 -1 10 4.5 5.3
-5 -1 9 123.59 15.5
-5 -1 9 146.69 15.8
-5 -1 9 131.79 17.4
-5 -1 8 2.3 3.6
-5 -1 8 3 3.8
-5 -1 8 -0.6 3.4
-5 -1 7 11.2 4
-5 -1 7 19.5 5.7
-5 -1 7 9 4.5
5 1 -7 16.6 5.2
-5 -1 6 122.49 13.8
-5 -1 6 141.09 11.9
5 1 -6 128.49 12.7
-5 -1 5 280.27 21
-5 -1 5 296.67 22.3
-5 -1 5 290.67 22.3
5 1 -5 305.17 22.8
-5 -1 4 130.39 11.6
-5 -1 4 141.69 12.4
-5 -1 4 143.19 11.1
5 1 -4 135.09 12.5
-5 -1 3 494.05 34.3
-5 -1 3 514.45 33.1
5 1 -3 503.95 35.1
-5 -1 2 313.87 21.1
-5 -1 2 292.57 21.3
-5 -1 2 305.27 19.5
5 1 -2 301.67 22
5 1 -2 285.67 22.1
-5 -1 1 31.9 5.4
-5 -1 1 38.1 4
-5 -1 1 44.7 4.8
-5 -1 1 37.6 6.2
5 1 -1 30.7 5.4
5 1 -1 28 5.2
5 1 -1 23.1 4.7
-5 -1 0 1014.3 64.29
-5 -1 0 961.1 63.99
-5 -1 0 1076.59 66.59
5 1 0 955.4 65.39
5 1 0 1058.79 66.49
-5 -1 -1 20.1 4.3
-5 -1 -1 32.2 3.3
-5 -1 -1 30.7 5.6
-5 -1 -1 26 3.8
5 1 1 36.1 4.1
5 1 1 30.6 5.7
5 1 1 29.5 3.8
5 1 1 24.2 4.6
5 1 1 23.6 4.8
-5 -1 -2 252.67 20
-5 -1 -2 265.97 20.7
-5 -1 -2 276.57 18.4
5 1 2 272.07 19.5
5 1 2 269.57 18.8
5 1 2 271.57 18.2
5 1 2 266.97 19.9
5 1 2 264.97 20.2
-5 -1 -3 478.25 32.5
-5 -1 -3 463.85 32.5
-5 -1 -3 451.05 30.3
5 1 3 458.35 29.8
5 1 3 473.85 31.5
5 1 3 456.45 31.4
5 1 3 419.76 31.2
5 1 3 485.35 31.5
-5 -1 -4 130.79 9.8
5 1 4 124.59 11.5
5 1 4 126.49 10.9
-5 -1 -5 307.77 21.1
5 1 5 326.17 24
5 1 5 304.87 22.4
-5 -1 -6 140.19 10.9
5 1 6 144.19 15.5
5 1 6 142.69 13.8
5 1 7 15.6 5.5
5 1 7 11 5.1
5 1 8 1.9 4.1
5 1 8 10.2 5.5
5 1 9 141.69 17.5
5 1 9 127.49 17.1
5 1 10 32.8 9.6
5 1 10 13.4 6.6
5 1 11 52.59 12.2
5 1 12 58.69 13.7
-5 0 12 13.4 7.6
-5 0 12 29.6 8.9
-5 0 11 12.9 7.5
-5 0 11 8.1 5.8
-5 0 10 2.7 5.7
-5 0 10 -4 3.9
-5 0 10 10.8 4.7
-5 0 9 -6.5 3.5
-5 0 9 5.4 4.9
-5 0 9 8.5 4.3
-5 0 8 0.3 4.1
-5 0 8 0.4 3.1
-5 0 8 -2.7 3.4
-5 0 7 -0.6 3.2
-5 0 7 -2.6 2.5
-5 0 7 -2.4 2.8
5 0 -7 0.2 3.6
-5 0 6 0.7 2.4
-5 0 6 3.4 3.4
-5 0 6 0.4 2.7
5 0 -6 1.8 3.1
-5 0 5 -1.9 2.9
-5 0 5 0.9 2.3
-5 0 5 -0.6 1.8
5 0 -5 -2.1 2.7
-5 0 4 0.6 1.9
-5 0 4 -0.7 2.6
-5 0 4 1.7 1.8
5 0 -4 -2.2 2.4
-5 0 3 4.1 2.6
-5 0 3 -0.1 1.5
-5 0 3 -3.1 1.4
5 0 -3 -2.2 2.1
-5 0 2 -2 2
-5 0 2 -1.9 1.9
-5 0 2 -1.1 0.8
5 0 -2 -0.1 2.6
5 0 -2 4.8 4
-5 0 1 0.3 2.3
-5 0 1 -2.3 1.3
5 0 -1 -2.7 2
5 0 -1 -0.3 2.3
-5 0 0 -1.6 2
-5 0 0 -0.8 1.4
5 0 0 -3.3 2
5 0 0 -1.1 2.3
-5 0 -1 0.7 1.5
-5 0 -1 -0.3 2
5 0 1 -0.5 1.9
5 0 1 0 2.1
5 0 1 -1.8 1.9
-5 0 -2 5.9 3.1
-5 0 -2 -0.4 2
-5 0 -2 0.2 1.4
5 0 2 -1.1 1.8
5 0 2 1.6 1.6
5 0 2 -2 1.1
5 0 2 -2.3 1.5
5 0 2 3.3 2.7
-5 0 -3 -0.7 1.9
-5 0 -3 -0.7 1.7
-5 0 -3 -1.6 1
5 0 3 2 2.1
5 0 3 0.7 1.7
5 0 3 0.1 1.7
5 0 3 1.4 1.8
5 0 3 -0.5 0.9
5 0 3 0.1 1.5
-5 0 -4 0.9 1.3
5 0 4 2 2.4
5 0 4 0.6 1.8
5 0 4 2.1 1.8
-5 0 -5 -1.3 1.3
5 0 5 -0.2 2.4
5 0 5 0.4 1.9
5 0 5 -2.4 2.4
-5 0 -6 -0.2 1.5
5 0 6 1.7 3.5
5 0 6 3.5 3.2
5 0 7 0.4 2.9
5 0 7 -1.2 3.3
5 0 8 0.5 4
5 0 8 -1.4 3.6
5 0 9 -3.1 4.1
5 0 9 4.7 4
5 0 10 8.3 6.3
5 0 10 6.1 6
5 0 11 9.7 8
5 0 11 17 7.2
5 0 12 10.8 7.8
5 0 12 -0.4 6.4
-5 1 12 70.89 13.3
-5 1 11 57.39 11.6
-5 1 11 70.39 12.9
-5 1 10 10.4 5.7
-5 1 10 7.9 6.4
-5 1 10 10.6 6.4
-5 1 9 144.09 17.5
-5 1 9 148.59 16.9
-5 1 9 141.69 17
-5 1 8 5.1 4.4
-5 1 8 0.6 4.1
-5 1 8 1.1 3.6
-5 1 7 14.4 4.8
-5 1 7 10.9 4.7
-5 1 7 19.5 5.6
5 -1 -7 15.4 6
-5 1 6 125.29 12.6
-5 1 6 156.08 13.5
-5 1 6 149.69 13.2
5 -1 -6 131.39 15.6
-5 1 5 333.17 23.5
-5 1 5 314.47 23.7
-5 1 5 299.67 22.9
5 -1 -5 318.37 25.1
-5 1 4 128.69 11.6
-5 1 4 127.69 11.2
5 -1 -4 148.09 9.5
5 -1 -4 159.38 14.1
-5 1 3 480.85 32.6
-5 1 3 487.85 32
5 -1 -3 499.95 35.1
-5 1 2 297.17 20.1
-5 1 2 260.57 18
-5 1 2 268.57 18.9
5 -1 -2 277.97 21.5
5 -1 -2 275.87 20.2
-5 1 1 27.4 3.8
-5 1 1 33.2 5.3
5 -1 -1 36.8 6
5 -1 -1 37.1 6.1
-5 1 0 1140.69 72.79
5 -1 0 1002.7 72.59
5 -1 0 1216.68 72.99
-5 1 -1 28.2 3.5
-5 1 -1 17.2 3.2
5 -1 1 31.9 4.9
5 -1 1 27.2 5
-5 1 -2 261.27 20.1
-5 1 -2 253.67 18.3
5 -1 2 255.57 20.4
5 -1 2 266.77 19.9
5 -1 2 292.97 18.7
5 -1 2 273.87 18.9
5 -1 2 269.57 20.1
-5 1 -3 486.75 30.4
-5 1 -3 429.06 32.1
5 -1 3 440.76 31.4
5 -1 3 456.75 31.3
5 -1 3 459.55 30.8
5 -1 3 483.35 31.4
5 -1 3 461.65 29.6
-5 1 -4 140.99 10.5
5 -1 4 153.48 12.9
5 -1 4 125.99 11.5
-5 1 -5 291.97 20.2
5 -1 5 295.97 23.1
5 -1 5 298.07 22.4
-5 1 -6 154.58 11.6
5 -1 6 148.39 16.4
5 -1 6 150.78 14.1
5 -1 7 17.2 5.9
5 -1 7 13.3 5.1
5 -1 8 5.5 4.8
5 -1 8 -1.2 3.7
5 -1 9 152.38 17.9
5 -1 9 120.69 17.3
5 -1 10 16.2 7.4
5 -1 10 11.3 6.6
5 -1 11 61.29 13.5
5 -1 11 76.39 14
5 -1 12 59.49 14.1
5 -1 12 58.89 13.5
-5 2 12 4.6 5.6
-5 2 11 22.7 8.1
-5 2 10 27.2 8.4
-5 2 10 34.8 9
-5 2 9 194.68 18.3
-5 2 9 182.18 20.1
-5 2 9 180.38 17.9
-5 2 8 53.59 9.5
-5 2 8 27 7.5
-5 2 8 42.1 8.1
5 -2 -8 37.8 9.3
-5 2 7 124.49 14.3
-5 2 7 133.79 14.5
-5 2 7 133.19 14.2
5 -2 -7 122.19 15.8
-5 2 6 134.29 12.6
-5 2 6 113.09 12.5
-5 2 6 104.49 12.5
5 -2 -6 148.69 16.5
-5 2 5 145.79 11.4
-5 2 5 125.69 11.8
5 -2 -5 118.99 8.9
5 -2 -5 137.99 15.8
-5 2 4 -1.4 1.7
-5 2 4 1.2 1.9
5 -2 -4 1.5 3.6
5 -2 -4 3.4 1.4
-5 2 3 292.77 19.2
-5 2 3 284.97 20.3
5 -2 -3 263.47 22.5
-5 2 2 111.29 10.3
-5 2 2 115.09 9.2
-5 2 2 117.09 7.8
-5 2 2 117.89 8.5
5 -2 -2 92.49 10
5 -2 -2 121.29 13.2
-5 2 1 1774.02 114.19
-5 2 1 1856.51 116.09
5 -2 -1 1848.32 116.19
-5 2 0 310.67 22.5
-5 2 0 353.66 24.7
5 -2 0 255.27 23.7
5 -2 0 409.26 25.3
-5 2 -1 1859.21 125.29
-5 2 -1 1908.71 127.49
5 -2 1 1915.01 124.89
5 -2 1 2258.77 127.59
5 -2 1 2083.09 126.89
-5 2 -2 121.29 9.1
-5 2 -2 107.49 10.9
5 -2 2 111.19 9.4
5 -2 2 110.29 10.6
5 -2 2 104.99 9.5
-5 2 -3 262.27 19
-5 2 -3 252.87 20.9
5 -2 3 291.87 19.4
5 -2 3 281.97 20.6
5 -2 3 271.67 20.3
5 -2 3 278.77 20.5
-5 2 -4 -0.6 1.5
5 -2 4 1.4 1.8
5 -2 4 2.1 2.2
5 -2 4 1.3 0.8
5 -2 4 3.1 1.9
5 -2 4 1.2 0.7
5 -2 4 1.8 2.8
-5 2 -5 121.39 9.7
5 -2 5 127.59 11.2
5 -2 5 98.29 12.5
-5 2 -6 114.79 10
5 -2 6 137.19 15.1
5 -2 6 143.69 12.7
5 -2 7 117.79 15.4
5 -2 7 126.89 14.2
5 -2 8 41.8 9.4
5 -2 8 43.3 8.9
5 -2 9 203.78 19.6
5 -2 9 197.88 22.6
5 -2 10 19.6 7.6
5 -2 10 36.9 9.6
5 -2 11 50.99 11.2
5 -2 11 41.2 10.8
5 -2 12 5.3 7
-5 3 12 11.3 7
-5 3 11 -0.6 5.4
-5 3 10 40.3 9.9
-5 3 9 16.2 6.6
-5 3 9 20.9 7
-5 3 9 20.5 6.9
-5 3 8 60.79 10.5
-5 3 8 71.79 10.8
-5 3 8 47.7 8.7
5 -3 -8 66.19 12.2
-5 3 7 55.59 9.2
-5 3 7 65.29 8.8
5 -3 -7 43.8 10.3
-5 3 6 71.49 8.9
-5 3 6 91.79 11.3
5 -3 -6 68.39 12
-5 3 5 7.9 2.9
-5 3 5 12.7 4
5 -3 -5 17.7 2.9
5 -3 -5 20 6.3
-5 3 4 56.69 7.7
-5 3 4 64.59 5.9
5 -3 -4 75.69 11.5
5 -3 -4 59.39 6.1
-5 3 3 228.38 17.6
-5 3 3 241.28 17.7
-5 3 3 238.58 17.8
-5 3 3 234.38 15.6
-5 3 3 242.18 15.8
5 -3 -3 229.28 20.4
5 -3 -3 237.28 16.6
-5 3 2 78.89 6.4
-5 3 2 53.99 7.7
-5 3 2 79.89 7
5 -3 -2 66.69 8.4
5 -3 -2 82.49 10.9
-5 3 1 57.89 6.4
-5 3 1 80.59 9.9
5 -3 -1 62.19 8.8
5 -3 -1 65.99 9.5
-5 3 0 57.09 8
-5 3 0 57.59 6.6
5 -3 0 59.99 8.7
5 -3 0 81.39 8.9
5 -3 0 58.89 5
-5 3 -1 56.09 6.4
-5 3 -1 50.99 7.6
5 -3 1 77.79 8.7
5 -3 1 56.99 5.6
5 -3 1 54.99 7.9
-5 3 -2 58.49 8.3
5 -3 2 77.49 8.7
5 -3 2 83.29 9.3
5 -3 2 63.39 7.3
-5 3 -3 215.38 16.4
-5 3 -3 212.58 18.6
5 -3 3 219.98 18.1
5 -3 3 225.88 17.5
5 -3 3 243.48 16.9
5 -3 3 231.58 16.1
-5 3 -4 60.69 6.8
-5 3 -4 53.29 11.6
5 -3 4 61.69 8.5
5 -3 4 53.49 6.7
5 -3 4 55.19 6.5
5 -3 4 48.8 7.1
-5 3 -5 11.6 3.1
5 -3 5 18 3.9
5 -3 5 9.6 4.3
-5 3 -6 69.79 8.1
5 -3 6 82.89 11.6
5 -3 6 93.99 10.6
5 -3 7 68.79 9.5
5 -3 7 38.3 8.6
5 -3 8 58.99 11.5
5 -3 8 67.79 10.3
5 -3 9 61.29 10.2
5 -3 9 17.6 7.2
5 -3 10 29.8 8.3
5 -3 10 17.2 7.7
5 -3 11 20.5 7.4
5 -3 12 22.5 10
-5 4 12 15.1 7.7
-5 4 11 -2.7 4.1
-5 4 10 5 5.1
-5 4 9 53.09 10.4
-5 4 9 81.39 12.7
5 -4 -9 76.99 17.2
5 -4 -8 55.29 12.4
-5 4 7 291.47 23.7
-5 4 7 275.67 21.3
5 -4 -7 273.07 26.1
-5 4 6 59.39 8.9
-5 4 6 42 6.2
5 -4 -6 34.3 9.3
-5 4 5 72.09 9.9
5 -4 -5 89.99 7.7
5 -4 -5 79.39 12.7
-5 4 4 76.49 7.7
-5 4 4 71.69 9.1
-5 4 4 73.99 7.3
5 -4 -4 59.79 7
-5 4 3 514.75 36.4
-5 4 3 515.55 36.5
-5 4 3 554.34 36
-5 4 3 509.55 34.2
5 -4 -3 537.75 34.9
-5 4 2 78.69 8.5
-5 4 2 69.29 7.7
-5 4 2 84.19 9.7
5 -4 -2 82.09 11
-5 4 1 50.89 6.2
-5 4 1 46.3 8.4
5 -4 -1 61.49 9.7
-5 4 0 0.5 2.9
-5 4 0 0 1.8
5 -4 0 1.8 1.5
5 -4 0 1.2 3.1
-5 4 -1 52.79 6.7
-5 4 -1 44.3 7
5 -4 1 39.3 5.3
5 -4 1 52.49 9.1
5 -4 1 61.79 8.8
-5 4 -2 84.49 12.1
-5 4 -2 90.99 8.3
5 -4 2 83.59 10.3
5 -4 2 91.49 10.7
5 -4 2 68.59 8.4
-5 4 -3 506.05 33.6
-5 4 -3 461.85 36
5 -4 3 473.55 32.4
5 -4 3 531.95 34.1
5 -4 3 473.25 35.3
5 -4 3 526.75 34.7
-5 4 -4 66.19 10.2
-5 4 -4 70.29 7.9
5 -4 4 75.09 8.7
5 -4 4 48.1 8.2
5 -4 4 72.19 6.8
5 -4 4 65.59 7.5
-5 4 -5 74.09 8.5
5 -4 5 72.69 7.4
5 -4 5 88.69 9.3
5 -4 5 73.79 7.5
5 -4 5 80.99 11.2
-5 4 -6 47.5 6.6
5 -4 6 32.9 7.8
5 -4 6 44.3 7
5 -4 7 209.28 21.5
5 -4 7 279.57 20.8
5 -4 8 23.4 8.3
5 -4 8 45.9 8.4
5 -4 9 68.39 13.2
5 -4 10 5.5 5.8
5 -4 11 22.9 8.9
5 -4 12 8.6 8
-5 5 11 24.1 8.6
-5 5 10 51.29 10.9
-5 5 9 37.9 8.8
5 -5 -9 42.9 12.3
-5 5 8 495.95 37.3
5 -5 -8 455.05 40.1
-5 5 7 111.99 14.2
5 -5 -7 111.29 17.4
-5 5 6 364.46 28
5 -5 -6 341.57 31.1
-5 5 5 24.2 6
5 -5 -5 30.1 4.8
-5 5 4 700.03 46.3
-5 5 4 675.43 46.4
-5 5 4 671.13 43.6
-5 5 4 695.03 46.7
5 -5 -4 672.63 45
-5 5 3 232.18 19.1
-5 5 3 248.18 16.6
-5 5 3 209.48 18.6
-5 5 3 207.58 17.2
5 -5 -3 211.88 16.6
-5 5 2 627.34 44.1
-5 5 2 636.94 47.3
-5 5 2 612.74 44.1
5 -5 -2 807.32 48.5
-5 5 1 111.69 12.3
-5 5 1 78.89 9.3
5 -5 -1 89.79 7.1
5 -5 -1 115.69 12.9
-5 5 0 968.8 60.89
-5 5 0 756.92 56.69
5 -5 0 946.51 60.49
5 -5 0 819.02 55.29
-5 5 -1 136.99 17
-5 5 -1 97.49 10.6
5 -5 1 92.99 9
5 -5 1 102.99 12.5
-5 5 -2 623.04 40
-5 5 -2 580.54 42.9
5 -5 2 550.54 42
5 -5 2 599.64 39.8
-5 5 -3 224.58 16.5
-5 5 -3 201.58 19.1
5 -5 3 210.28 16.9
5 -5 3 178.28 17.5
5 -5 3 212.78 17.1
-5 5 -4 542.05 45.1
-5 5 -4 659.03 43
5 -5 4 655.43 44.7
5 -5 4 626.44 41.4
5 -5 4 648.64 42.7
5 -5 4 682.23 44.7
-5 5 -5 36.1 6.1
5 -5 5 42.6 8.2
5 -5 5 31 5.8
5 -5 5 43.7 6
-5 5 -6 343.97 26.2
5 -5 6 373.96 26.6
5 -5 6 372.36 29.3
5 -5 7 126.19 13.3
5 -5 7 98.89 14.8
5 -5 8 409.96 33.9
5 -5 9 23.8 8.6
5 -5 10 74.09 15
5 -5 11 15.5 7.8
-5 6 11 43.7 10.6
-5 6 10 19.8 7.9
-5 6 9 43.9 9.8
5 -6 -9 21.8 11.1
-5 6 8 14.5 5.7
5 -6 -8 4 7.5
-5 6 7 43.3 8.9
5 -6 -7 56.69 13.9
-5 6 6 26.7 6.9
-5 6 5 4.6 3.8
-5 6 5 8.6 3.7
-5 6 5 11 3.6
5 -6 -5 11.7 3.7
-5 6 4 70.99 7.2
-5 6 4 63.49 9.4
-5 6 4 57.39 8.8
-5 6 4 81.89 11
5 -6 -4 57.79 7.7
-5 6 3 54.49 9.3
-5 6 3 50.29 6.7
-5 6 3 51.99 7.4
-5 6 3 46.2 9.1
5 -6 -3 47.8 6.9
-5 6 2 16.5 4.1
-5 6 2 8.8 4.7
-5 6 2 15.2 4
5 -6 -2 25.6 8
-5 6 1 102.19 14.9
-5 6 1 59.29 8.6
5 -6 -1 95.09 14.4
5 -6 -1 93.59 7.2
-5 6 0 48 9.8
-5 6 0 55.29 7.6
5 -6 0 62.19 6.5
5 -6 0 55.09 10.1
-5 6 -1 56.29 10.4
-5 6 -1 62.39 8.4
5 -6 1 92.49 13.5
5 -6 1 76.89 8.1
-5 6 -2 16.2 5.8
-5 6 -2 14.9 4.3
5 -6 2 12.4 5.3
5 -6 2 20.6 4.9
-5 6 -3 52.79 7.6
-5 6 -3 69.09 12.9
5 -6 3 37.3 8.1
5 -6 3 55.99 8.2
-5 6 -4 54.49 8.3
-5 6 -4 80.29 13.9
5 -6 4 66.59 7.1
5 -6 4 68.19 10
5 -6 4 63.59 9.1
5 -6 4 70.19 11.3
-5 6 -5 10.3 4.1
5 -6 5 9.2 3.2
5 -6 5 7.8 4
5 -6 5 8.5 4.5
-5 6 -6 47.2 7.4
5 -6 6 26.3 7.3
5 -6 7 45.2 9.8
5 -6 8 7.2 6.2
5 -6 9 27.6 9.3
5 -6 10 14.1 8.8
5 -6 11 13.1 7.5
-5 7 11 6.8 6.6
-5 7 10 28.3 9.2
-5 7 9 2.7 5.2
5 -7 -9 4.7 9.2
-5 7 8 129.79 17.1
5 -7 -8 164.38 24.4
-5 7 7 17.2 6.3
-5 7 6 156.28 17.5
-5 7 5 20.8 5.6
-5 7 5 11.9 4.8
-5 7 5 18.9 5.6
-5 7 5 12.4 3.6
5 -7 -5 6.3 3.8
-5 7 4 22.7 6.1
-5 7 4 21.9 5.8
-5 7 4 15.9 3.9
-5 7 4 16.6 6.2
5 -7 -4 19.3 4.7
-5 7 3 20.1 6.5
-5 7 3 19.3 4.7
-5 7 3 26.7 5.6
-5 7 3 21.5 7.2
5 -7 -3 28.3 5.7
-5 7 2 43.4 7
-5 7 2 64.49 12.4
-5 7 2 58.29 11.3
-5 7 2 43.7 6.7
5 -7 -2 40.8 9.7
-5 7 1 4.2 4.3
-5 7 1 5.1 3.2
5 -7 -1 6.8 2.4
5 -7 -1 7.3 6.1
-5 7 0 59.39 8.2
-5 7 0 51.39 9.8
5 -7 0 36.9 9.5
5 -7 0 59.89 6.8
-5 7 -1 8 4
-5 7 -1 19.1 10.2
5 -7 1 17.9 7.1
5 -7 1 8.1 3.3
-5 7 -2 40.4 9.5
-5 7 -2 58.69 8.5
5 -7 2 61.79 8.5
5 -7 2 59.29 11.5
-5 7 -3 18.8 4.9
-5 7 -3 8.3 6.2
5 -7 3 12.9 5.9
5 -7 3 26.5 6.2
-5 7 -4 17.5 5
5 -7 4 15.3 5.6
5 -7 4 19.8 3.6
5 -7 4 18 6.3
-5 7 -5 17.1 5.1
5 -7 5 18.8 6.6
5 -7 5 11.5 4.9
-5 7 -6 94.59 12.4
5 -7 6 135.39 12.4
5 -7 6 90.19 14.4
5 -7 7 13.1 6.6
5 -7 8 100.99 16.1
5 -7 9 4.7 5.8
5 -7 10 31.8 11
5 -7 11 -7.2 5.7
-5 8 10 12.3 7.1
5 -8 -10 27.1 14.5
-5 8 9 1.7 5.3
5 -8 -9 4 9.4
-5 8 8 22.6 7.9
-5 8 7 10.1 5.6
-5 8 6 55.89 9.6
-5 8 5 11 3.2
-5 8 5 13.4 5.5
-5 8 5 14.2 5.7
-5 8 5 11.6 5.2
5 -8 -5 10.2 4.5
-5 8 4 44.9 10.1
-5 8 4 46.3 9.7
-5 8 4 46.9 6.9
-5 8 4 34.1 7.2
5 -8 -4 45.8 7.6
-5 8 3 42 7
-5 8 3 43 10
-5 8 3 28.4 6.3
-5 8 3 29.1 8.5
-5 8 2 46.5 10.5
-5 8 2 49 7.9
-5 8 2 44.6 7
-5 8 1 79.59 10.4
-5 8 1 57.19 12.1
5 -8 -1 91.49 7.9
-5 8 0 435.26 38.3
-5 8 0 489.15 34.7
5 -8 0 491.75 32.6
-5 8 -1 99.89 11.9
-5 8 -1 67.79 13.7
5 -8 1 103.49 10.8
-5 8 -2 58.69 8.9
5 -8 2 49.3 11.5
5 -8 2 42.1 7.6
-5 8 -3 34.1 7
5 -8 3 25.5 6.9
5 -8 3 34.4 7.5
-5 8 -4 33.7 7.2
5 -8 4 47.9 8.8
5 -8 4 45.2 9.7
-5 8 -5 0.8 3.7
5 -8 5 2.2 4.5
5 -8 5 14.7 5.7
-5 8 -6 55.09 9.7
5 -8 6 48.9 11
5 -8 6 69.89 10.5
5 -8 7 3.1 5.9
5 -8 8 29.3 9.3
5 -8 9 11.4 7.4
5 -8 10 17.1 10.4
-5 9 10 9.3 7.2
5 -9 -10 14.3 12.9
-5 9 9 17.4 7.3
5 -9 -9 3 10.3
-5 9 8 43 9.9
-5 9 7 41 9.4
-5 9 6 72.79 10.8
-5 9 6 70.99 11
-5 9 6 80.59 12.1
-5 9 5 85.19 13.3
-5 9 5 64.89 11.4
-5 9 5 97.69 10.1
-5 9 5 81.19 11.7
5 -9 -5 71.49 10.6
-5 9 4 177.78 15.5
-5 9 4 172.18 16.3
-5 9 4 165.08 18.5
-5 9 4 174.58 20
5 -9 -4 183.38 16.3
-5 9 3 146.89 14.6
-5 9 3 97.29 16.6
-5 9 3 116.09 13.2
-5 9 2 286.17 21.2
-5 9 2 270.87 22.1
-5 9 2 246.68 25.9
-5 9 1 63.29 9.5
-5 9 1 58.19 12.4
-5 9 0 62.89 9.8
5 -9 0 50.89 7.5
-5 9 -1 91.69 11.9
5 -9 1 76.49 10.3
-5 9 -2 272.17 22.6
5 -9 2 259.27 21.7
-5 9 -3 117.69 14.2
5 -9 3 100.39 13.4
-5 9 -4 164.28 18.2
5 -9 4 193.58 18.4
-5 9 -5 91.49 12.7
5 -9 5 83.19 13.8
5 -9 5 83.49 13.2
-5 9 -6 75.49 11.5
5 -9 6 55.49 10.5
5 -9 6 73.79 12.6
5 -9 7 37.6 11.4
5 -9 8 25.9 9.3
5 -9 9 1.7 6.4
5 -9 10 10.4 8.2
-5 10 9 12.3 7.4
-5 10 8 18 7.5
-5 10 7 29.4 8.6
-5 10 6 71.19 12
-5 10 6 45.1 9.8
-5 10 6 48.6 9.7
-5 10 5 72.89 9
-5 10 5 41.5 10.7
-5 10 5 44.8 8.7
-5 10 5 43.9 10.8
5 -10 -5 49.2 9.2
-5 10 4 12.3 7.6
-5 10 4 19.9 5.6
5 -10 -4 17.2 6.3
-5 10 3 50.29 12.1
-5 10 3 61.59 9
-5 10 3 61.99 9.9
-5 10 2 21.5 5.7
-5 10 2 15.3 5.4
-5 10 1 123.29 15.1
-5 10 0 187.68 20
-5 10 -1 69.89 11
5 -10 1 95.59 11.5
-5 10 -2 18.1 6.2
5 -10 2 7.1 5.1
-5 10 -3 54.39 10.2
5 -10 3 67.99 10.9
-5 10 -4 10.8 5.5
5 -10 4 15.7 7.2
-5 10 -5 34.7 8.5
5 -10 5 49.4 10.8
-5 10 -6 54.89 10.7
5 -10 6 69.39 13
5 -10 6 57.09 11.4
5 -10 7 20.5 9.4
5 -10 7 26.4 6.8
5 -10 8 -6.3 5.9
5 -10 9 6.2 8.8
-5 11 8 23.1 9.1
-5 11 7 20.3 7.5
-5 11 6 21.4 7.2
-5 11 6 13.4 5.9
-5 11 5 4 4.8
-5 11 5 9.7 5.9
-5 11 5 10.7 7.5
5 -11 -5 8.1 5.5
-5 11 4 17.3 8.3
-5 11 4 14.9 5.5
-5 11 4 12.1 5.8
-5 11 3 21.5 6.4
-5 11 3 19.4 6.2
-5 11 2 10.8 5.1
-5 11 1 67.69 11.4
-5 11 0 7 4.8
-5 11 -1 50.09 9.7
-5 11 -2 5.4 4.3
5 -11 2 2.5 5.1
-5 11 -3 16.2 7
5 -11 3 26.7 8.1
-5 11 -4 18.8 6.8
5 -11 4 26.5 9
-5 11 -5 12 6.4
5 -11 5 4.5 6.9
-5 11 -6 20.6 7.9
5 -11 6 9.7 7.5
5 -11 7 12.6 8.9
5 -11 8 27.1 10.7
5 -11 9 3.9 7.7
-5 12 8 13.5 7
-5 12 7 34.6 10
-5 12 6 12.8 6.2
-5 12 5 57.29 10.6
-5 12 5 19.9 9.8
-5 12 4 -4.2 3.9
-5 12 4 2.1 4.4
-5 12 3 21.8 7.3
-5 12 3 29.9 7.3
-5 12 2 84.19 13.1
-5 12 1 0.8 4.6
-5 12 0 45.7 9.9
-5 12 -1 -6.4 3.7
-5 12 -2 84.59 13.6
-5 12 -3 21.2 7.5
5 -12 3 29.5 9.3
-5 12 -4 3.9 5.3
5 -12 4 -1.9 6.3
-5 12 -5 28.7 9.1
5 -12 5 36.1 9.9
-5 12 -6 11 7
5 -12 6 15.9 9.3
5 -12 7 47.3 12.2
5 -12 8 30.3 11.7
-5 13 7 1.1 6.3
-5 13 6 12.7 6.7
-5 13 5 11.3 5.9
-5 13 4 -4.2 4.6
-5 13 4 0.5 5
-5 13 3 30.7 8.4
-5 13 2 7.1 5.6
-5 13 1 36.7 9.1
-5 13 0 -0.5 4.3
-5 13 -1 20.1 7.4
-5 13 -2 9.4 6.5
-5 13 -3 13.1 6.9
-5 13 -4 10.3 6.9
-5 13 -5 6.7 6.9
5 -13 5 9.4 8.4
-5 13 -6 12.7 8.1
5 -13 6 7.5 8.9
5 -13 7 5.1 8.6
-5 14 4 17 7.2
-5 14 3 56.29 11.2
-5 14 2 2.6 5.3
-5 14 1 59.39 12.1
-5 14 0 6.1 5.4
-5 14 -1 43.7 10.3
-5 14 -2 2 5.8
-5 14 -3 25.1 9
-5 14 -4 14.2 7.7
-5 14 -5 20.7 9
-5 15 3 2.1 5.7
-5 15 2 35.4 10
-5 15 1 -1.8 6.1
-5 15 0 57.89 13
-5 15 -1 13.3 8.3
-5 15 -2 30.2 10.1
-5 15 -3 -2.9 5.7
-6 -15 3 10.4 7.9
-6 -15 3 10.6 8.5
6 15 -3 4.5 7.2
6 15 -2 4.3 6.8
6 15 -1 12.7 7.8
-6 -15 0 10.8 6.2
6 15 0 6 7.3
-6 -15 -1 13.5 7.3
6 15 1 18.1 8.4
-6 -15 -2 0.6 5.6
6 15 2 2.4 6.2
-6 -15 -3 6.7 6.6
6 15 3 2.8 6.5
-6 -14 5 4.2 8.1
6 14 -5 27.8 9.7
-6 -14 4 -5.4 5.6
-6 -14 4 1.1 6.8
6 14 -4 3.5 7.2
-6 -14 3 14.2 9
6 14 -3 29.9 10.6
6 14 -2 11.7 7.7
6 14 -1 13.9 7.7
-6 -14 0 3.6 4.6
6 14 0 -5 4
-6 -14 -1 20.8 7.6
6 14 1 13.5 6.8
-6 -14 -2 6 6
6 14 2 0.6 5.3
-6 -14 -3 8.8 6.8
6 14 3 9.9 6.7
-6 -14 -4 1.1 6.4
6 14 4 7.3 5.8
-6 -14 -5 17.9 8
6 14 5 26.4 8.3
-6 -13 6 2.1 8.3
-6 -13 5 3 6.3
6 13 -5 7.2 7.1
-6 -13 4 13.9 7.5
-6 -13 4 3.1 6.4
6 13 -4 5.8 7
-6 -13 3 4.2 6.9
6 13 -3 -4.4 4.8
6 13 -2 18.5 7.1
-6 -13 1 1.9 4.4
6 13 -1 9.7 6.2
-6 -13 0 19.7 6.5
6 13 0 13.4 6.5
-6 -13 -1 14.6 6.1
6 13 1 7.2 5.8
-6 -13 -2 10.2 5.7
6 13 2 2 4.7
-6 -13 -3 7.8 5.5
6 13 3 8.1 5.9
-6 -13 -4 11.8 6.6
6 13 4 3.5 5.4
-6 -13 -5 2.9 6.2
6 13 5 1.6 4.8
-6 -13 -6 1.5 5.5
6 13 6 11.3 7.6
-6 -12 8 11.5 10.7
-6 -12 7 16.2 8.8
-6 -12 6 9.5 7.3
-6 -12 5 6.7 6.7
-6 -12 5 -0.4 5.4
6 12 -5 11.3 7.1
-6 -12 4 11.8 6.9
-6 -12 4 13.3 6.3
6 12 -4 13.2 7.3
-6 -12 3 -3 5.7
6 12 -3 -1.3 4.5
6 12 -2 50.79 10.5
-6 -12 1 54.79 9.5
6 12 -1 54.49 11.1
-6 -12 0 27.7 7
6 12 0 21.3 7.2
-6 -12 -1 55.69 10.3
6 12 1 49.5 10
-6 -12 -2 26.2 7.5
6 12 2 45.6 9.5
-6 -12 -3 -1.4 3.9
6 12 3 1.6 4.6
-6 -12 -4 22.9 7.2
6 12 4 12.5 5.7
6 12 4 10.3 6.7
-6 -12 -5 16.9 7.2
6 12 5 13.3 6.1
6 12 5 18.8 7.7
-6 -12 -6 8.1 6.3
6 12 6 2 6.2
6 12 7 28.7 10.7
-6 -11 8 3.5 7.6
-6 -11 7 53.59 13.8
-6 -11 6 49.3 10.3
-6 -11 6 68.09 15.8
-6 -11 6 82.49 14.9
-6 -11 5 45.3 10.6
-6 -11 5 39.4 10.8
6 11 -5 59.29 11.2
-6 -11 4 96.29 15.9
6 11 -4 103.59 16.3
6 11 -4 142.29 16.7
-6 -11 3 50.49 11.4
6 11 -3 53.49 10.5
-6 -11 2 106.69 12.5
6 11 -2 82.59 12.7
6 11 -2 86.99 15.6
-6 -11 1 73.49 10.8
6 11 -1 101.89 14
-6 -11 0 20.4 6
6 11 0 24.5 7.2
-6 -11 -1 73.29 11.3
6 11 1 88.99 12.5
-6 -11 -2 84.49 11.9
6 11 2 91.79 12.9
-6 -11 -3 53.99 9.8
6 11 3 61.59 10.6
6 11 3 60.49 10.3
-6 -11 -4 121.79 15.3
6 11 4 107.49 14.3
6 11 4 151.78 17.2
-6 -11 -5 60.49 10.4
6 11 5 63.79 9.9
6 11 5 64.39 11.8
6 11 5 35.1 10
-6 -11 -6 43.6 9.5
6 11 6 65.09 12.5
6 11 7 41.1 11
6 11 8 -2.8 6.1
-6 -10 9 -3.8 7.1
-6 -10 8 22.6 10
-6 -10 7 29.8 9.9
-6 -10 6 20.9 9.2
-6 -10 6 18.8 6.1
-6 -10 6 26 8.5
-6 -10 5 91.09 13.8
-6 -10 5 72.69 12.8
-6 -10 5 88.79 15.5
6 10 -5 89.69 13.4
-6 -10 4 81.99 13.6
6 10 -4 69.99 12.4
6 10 -4 58.69 10.8
-6 -10 3 37.7 9.8
6 10 -3 25.6 8.4
6 10 -3 34.4 8.2
-6 -10 2 71.99 9.7
6 10 -2 57.49 9.9
6 10 -2 49.2 10.7
-6 -10 1 21 5.7
6 10 -1 24.6 8.4
6 10 -1 26.7 7.1
-6 -10 0 247.78 21
6 10 0 269.67 22.4
6 10 0 237.78 24
-6 -10 -1 25.8 6.5
6 10 1 27.4 7.1
-6 -10 -2 43.1 8.2
6 10 2 61.09 9.1
6 10 2 58.19 9.4
-6 -10 -3 40.2 8.2
6 10 3 56.59 9.4
6 10 3 60.79 9.7
-6 -10 -4 61.39 10.1
6 10 4 86.19 11.4
6 10 4 52.49 11.9
6 10 4 79.79 11.9
-6 -10 -5 103.79 13.5
6 10 5 95.89 14.7
6 10 5 113.99 13.3
-6 -10 -6 21.3 6.9
6 10 6 33.5 9.2
6 10 6 13.6 6.4
6 10 7 34.2 10.1
6 10 7 27.4 8.3
6 10 8 62.49 14.1
6 10 9 0.6 7.3
-6 -9 10 4.4 7.4
-6 -9 9 43 12.3
-6 -9 8 19.8 8.7
-6 -9 7 42.6 11
-6 -9 6 52.29 12.4
-6 -9 6 42.4 10.7
-6 -9 5 59.69 10.5
-6 -9 5 44 10.7
-6 -9 5 28 8.2
6 9 -5 66.89 10.3
6 9 -5 39.1 9.4
-6 -9 4 24.7 8
-6 -9 4 18.8 7.3
6 9 -4 29.3 7.9
6 9 -4 22.1 6.5
-6 -9 3 119.19 15.8
6 9 -3 148.49 17.9
6 9 -3 95.59 13.1
-6 -9 2 9.6 3.8
6 9 -2 11.9 5.2
6 9 -2 2.2 4.5
-6 -9 1 216.78 18.1
6 9 -1 222.58 19.3
6 9 -1 208.18 21.2
-6 -9 0 11.6 4.6
6 9 0 9 6
6 9 0 15.8 5.5
-6 -9 -1 229.48 18.9
6 9 1 231.78 22.1
6 9 1 229.48 19.3
6 9 1 198.28 17.3
-6 -9 -2 6.9 4.1
6 9 2 4.2 3.6
6 9 2 16.7 7.4
6 9 2 9.1 4.1
6 9 2 3.8 4.8
-6 -9 -3 152.58 14.8
6 9 3 136.49 14.5
6 9 3 78.89 12.9
6 9 3 130.09 14.1
-6 -9 -4 33.2 7.3
6 9 4 29 7.4
6 9 4 23.5 7.4
6 9 4 32.6 6.8
-6 -9 -5 55.29 9.1
6 9 5 50.49 10.4
6 9 5 46.5 10.8
6 9 5 67.69 9.1
6 9 5 35.4 10.7
-6 -9 -6 27.5 7.2
6 9 6 25.6 7.7
6 9 6 20.9 6.9
6 9 6 42.2 10.2
6 9 7 35.3 7.9
6 9 7 35.6 9.3
6 9 8 14.6 7.7
6 9 9 73.99 15.4
6 9 10 4.6 7.9
-6 -8 10 6 7.4
-6 -8 9 37.6 10.6
-6 -8 8 81.49 15.5
-6 -8 7 45.5 11
-6 -8 6 142.99 19.8
-6 -8 6 108.09 16
-6 -8 5 92.19 12.7
-6 -8 5 128.99 17.1
-6 -8 5 74.19 12.1
6 8 -5 97.29 12.2
6 8 -5 80.89 12.2
-6 -8 4 66.39 11.9
-6 -8 4 59.89 10.7
6 8 -4 77.79 11.8
6 8 -4 60.49 9.6
-6 -8 3 75.29 13.6
-6 -8 3 81.89 9
-6 -8 3 58.09 10.6
6 8 -3 53.19 9.1
6 8 -3 66.39 11.6
-6 -8 2 162.18 18.7
-6 -8 2 154.18 13.8
6 8 -2 186.88 15.8
6 8 -2 142.99 17.9
-6 -8 1 34.8 5.9
6 8 -1 16.6 4.9
6 8 -1 23.2 6.9
-6 -8 0 55.49 7.9
-6 -8 0 62.39 13.2
6 8 0 51.29 10.4
6 8 0 36.9 8.3
6 8 0 51.39 8.3
6 8 0 69.69 7.4
-6 -8 -1 28.3 6.2
6 8 1 21.2 5.5
6 8 1 29.6 8.6
6 8 1 34 5.8
6 8 1 38.8 9
-6 -8 -2 185.68 16.2
6 8 2 168.58 19.4
6 8 2 200.78 22.6
6 8 2 200.98 16.2
6 8 2 172.08 16.1
-6 -8 -3 69.29 9.3
6 8 3 73.29 14.7
6 8 3 71.59 12.7
6 8 3 61.99 8.8
6 8 3 78.79 10.3
6 8 3 38.3 8.1
-6 -8 -4 64.19 9.5
6 8 4 55.79 11.9
6 8 4 45.7 10.5
6 8 4 73.39 10.7
6 8 4 69.09 9.1
-6 -8 -5 81.29 10.9
6 8 5 99.99 10.8
6 8 5 73.79 14.2
6 8 5 71.19 11.8
6 8 5 85.59 12.7
-6 -8 -6 151.08 15.9
6 8 6 160.68 18.7
6 8 6 139.89 15.4
6 8 6 138.09 16.2
6 8 7 44 10.6
6 8 8 101.69 16.2
6 8 9 22.7 8.8
6 8 10 12.7 8.7
-6 -7 11 -0.2 6.2
-6 -7 10 1.5 6.3
-6 -7 9 29.2 9.5
-6 -7 8 91.59 15.7
-6 -7 7 10.9 6.4
-6 -7 6 8 5.4
-6 -7 5 34.9 7.9
-6 -7 5 35.8 9.1
-6 -7 5 29.9 6.6
6 7 -5 37.3 7.9
6 7 -5 31.8 6.7
-6 -7 4 31.1 8
-6 -7 4 28.9 6.7
6 7 -4 29.2 6.2
6 7 -4 24.7 6.5
-6 -7 3 45.5 8.9
-6 -7 3 47.6 9.5
-6 -7 3 57.59 7.1
6 7 -3 69.69 9.2
6 7 -3 53.79 9.7
-6 -7 2 53.79 11
-6 -7 2 47.6 6.6
6 7 -2 59.39 11.9
6 7 -2 65.79 10.6
6 7 -2 34.5 7.4
6 7 -2 47.3 7.7
-6 -7 1 153.58 12.8
-6 -7 1 124.59 16.2
6 7 -1 173.18 18.4
6 7 -1 130.29 16.5
6 7 -1 146.49 13.6
6 7 -1 142.39 11.1
6 7 -1 163.18 18.1
-6 -7 0 57.79 12.7
-6 -7 0 106.89 10.6
-6 -7 0 67.29 11.1
6 7 0 94.99 13.5
6 7 0 108.49 16.6
6 7 0 98.99 11.2
6 7 0 90.59 8.2
6 7 0 95.19 14.8
-6 -7 -1 169.68 22.7
-6 -7 -1 125.39 13.6
6 7 1 145.69 17.5
6 7 1 154.68 13.6
6 7 1 146.59 17.3
6 7 1 147.69 12.5
6 7 1 125.39 18
-6 -7 -2 55.69 10.9
-6 -7 -2 55.39 8.1
-6 -7 -2 46.3 10.2
6 7 2 50.39 11
6 7 2 50.69 7.8
6 7 2 46 7.4
6 7 2 46.6 9.9
6 7 2 61.29 11.1
-6 -7 -3 47.2 7.7
-6 -7 -3 54.09 14.2
6 7 3 56.99 10.7
6 7 3 49.99 11.4
6 7 3 45.8 10.3
6 7 3 53.49 7.7
6 7 3 51.69 8.4
-6 -7 -4 32 6.4
6 7 4 27.5 7
6 7 4 47.7 7
6 7 4 29.2 6.8
6 7 4 33.9 9.4
-6 -7 -5 25 6.1
6 7 5 40.9 6.1
6 7 5 27.9 7
6 7 5 50.69 10.1
6 7 5 47.9 9.2
-6 -7 -6 5.6 4.2
6 7 6 30.5 8.2
6 7 6 19.6 6.4
6 7 6 8.3 4.3
6 7 7 23 7.6
6 7 8 105.39 16.4
6 7 9 -1.1 5.2
6 7 10 11.6 8.1
6 7 11 19.2 9.3
-6 -6 11 17.4 7.1
-6 -6 10 1.9 5.1
-6 -6 9 5.2 6.5
-6 -6 8 -3.3 4.3
-6 -6 7 12.6 6.1
-6 -6 6 23 7.2
-6 -6 5 -1 4.4
-6 -6 5 -2.9 2.1
6 6 -5 1.2 2.8
6 6 -5 0.6 3.3
-6 -6 4 44.3 9.5
-6 -6 4 31.9 6.9
6 6 -4 33.3 7
6 6 -4 39.7 6.7
-6 -6 3 8.8 4.5
-6 -6 3 5.6 3.6
-6 -6 3 3.4 2.2
6 6 -3 -0.5 3.2
6 6 -3 1 3.8
6 6 -3 1.4 2.9
-6 -6 2 0.3 1.8
-6 -6 2 -2.6 2.8
-6 -6 2 2.6 3.5
6 6 -2 0.2 4.1
6 6 -2 4 3.8
6 6 -2 -0.6 1.3
6 6 -2 -1.2 2.3
6 6 -2 -0.2 3.8
-6 -6 1 140.29 12.2
-6 -6 1 150.68 16
-6 -6 1 141.09 16
6 6 -1 163.48 16.7
6 6 -1 146.59 13.1
6 6 -1 148.89 14.8
6 6 -1 145.59 11
6 6 -1 130.89 16.3
-6 -6 0 75.49 12.7
-6 -6 0 107.49 10.3
6 6 0 148.79 19.8
6 6 0 132.69 14.8
6 6 0 110.89 9.5
6 6 0 141.79 15.7
6 6 0 114.09 12
-6 -6 -1 113.49 14.7
-6 -6 -1 131.39 15.5
-6 -6 -1 128.99 11.9
6 6 1 119.29 11.8
6 6 1 145.99 16.4
6 6 1 129.99 15.7
6 6 1 147.19 15.7
6 6 1 148.59 11.7
-6 -6 -2 1.8 2.6
-6 -6 -2 1 3.8
-6 -6 -2 -4.8 4.1
6 6 2 1.9 3.3
6 6 2 0.9 2.2
6 6 2 -4.6 3.4
6 6 2 2.9 2.4
6 6 2 -0.1 3.2
-6 -6 -3 3.5 2.8
-6 -6 -3 1.3 4.6
-6 -6 -3 9.9 6.4
6 6 3 1.9 2.4
6 6 3 1.9 2.9
6 6 3 6.1 5.7
6 6 3 5.8 4.2
6 6 3 -1.1 3
-6 -6 -4 46.9 7.1
-6 -6 -4 43.7 10.1
6 6 4 27 7.6
6 6 4 35 7.1
6 6 4 46.7 6.3
6 6 4 22.1 6.7
6 6 4 28.9 7.1
-6 -6 -5 -1 3.1
6 6 5 1.5 4.2
6 6 5 1.5 3.2
6 6 5 1.2 3.9
6 6 5 3.7 2.2
-6 -6 -6 25.3 6.1
6 6 6 38.6 6.7
6 6 6 25.8 5.6
6 6 6 24.2 7.5
6 6 7 29.9 8.1
6 6 8 2.1 4.7
6 6 9 15.9 7.5
6 6 10 0.6 5.1
6 6 11 30.7 10.7
-6 -5 11 9.4 6.9
-6 -5 10 2.7 5
-6 -5 9 24.6 9.3
-6 -5 8 54.49 11.5
-6 -5 7 45 9.9
-6 -5 6 50.29 9.4
6 5 -6 40.9 7.5
-6 -5 5 123.79 13.7
6 5 -5 105.79 12.8
6 5 -5 105.09 10
-6 -5 4 7 5.1
6 5 -4 7.4 4
6 5 -4 2.5 2.7
-6 -5 3 44.4 5.3
-6 -5 3 77.59 11
-6 -5 3 38.6 7.9
6 5 -3 44.8 6.4
6 5 -3 39.9 8
6 5 -3 44.9 7.7
-6 -5 2 4.9 2.4
-6 -5 2 6.5 4.2
-6 -5 2 9.6 4.2
6 5 -2 2.5 4.9
6 5 -2 9 3.2
6 5 -2 4.7 4.3
6 5 -2 8.7 4
6 5 -2 4.4 1.5
-6 -5 1 7 3.5
-6 -5 1 12.3 5.1
-6 -5 1 15.5 3.6
6 5 -1 12.3 2.4
6 5 -1 3.2 3.3
6 5 -1 3 2.5
6 5 -1 3.3 3.6
6 5 -1 7.6 4.7
-6 -5 0 9.5 3.8
-6 -5 0 25 4.4
6 5 0 30.4 5.3
6 5 0 23.7 3.7
6 5 0 19.9 5.7
6 5 0 14.8 5.5
6 5 0 32.1 9.9
-6 -5 -1 16.8 6.4
-6 -5 -1 8 3.1
-6 -5 -1 4.8 3.2
6 5 1 15.7 5.5
6 5 1 9.9 3.1
6 5 1 5.1 3.6
6 5 1 6.8 4.2
6 5 1 6.3 2.9
-6 -5 -2 2.9 2.5
-6 -5 -2 2.7 4.9
-6 -5 -2 4.6 3.7
6 5 2 4 2.6
6 5 2 9.6 5
6 5 2 4.8 2.9
6 5 2 7.1 6.2
6 5 2 3.3 3.4
-6 -5 -3 44.8 9.8
-6 -5 -3 57.19 7.3
-6 -5 -3 66.29 11.7
6 5 3 41.7 7.8
6 5 3 37.7 8.6
6 5 3 45.8 6.3
6 5 3 48.1 8.5
6 5 3 43 7.1
-6 -5 -4 3.8 3
-6 -5 -4 7.3 5.6
6 5 4 3.9 4.2
6 5 4 1.7 2
6 5 4 4.9 3.2
6 5 4 5 3.3
6 5 4 4.3 5
-6 -5 -5 104.69 11.8
6 5 5 128.59 12.8
6 5 5 102.09 11.7
6 5 5 116.59 14.5
6 5 5 121.49 15.3
6 5 5 134.09 9.7
-6 -5 -6 33.9 6.2
6 5 6 45.2 9
6 5 7 42.6 9.6
6 5 8 52.39 11
6 5 9 21.4 8
6 5 10 7.8 7.1
6 5 11 2 5.8
-6 -4 12 0.4 4.4
-6 -4 11 1.8 6.1
-6 -4 10 5.7 5.6
-6 -4 9 75.99 13.6
-6 -4 8 113.09 15.8
-6 -4 8 127.99 15.2
-6 -4 7 55.29 9.8
-6 -4 7 65.09 11.3
-6 -4 6 50.29 8.7
-6 -4 6 51.29 6.2
-6 -4 6 39.6 8.1
6 4 -6 52.39 8.5
-6 -4 5 45.4 7.5
-6 -4 5 46.9 7.7
6 4 -5 36.4 7.1
6 4 -5 44.2 5.8
-6 -4 4 85.09 12.2
-6 -4 4 75.59 9.7
6 4 -4 78.09 8.1
6 4 -4 72.59 9.9
-6 -4 3 109.39 11.7
-6 -4 3 110.09 8.4
-6 -4 3 96.49 10.7
-6 -4 3 119.09 13.9
6 4 -3 107.59 12.2
6 4 -3 120.79 13
6 4 -3 107.09 9.5
-6 -4 2 598.34 40.3
-6 -4 2 529.55 39.6
-6 -4 2 587.24 36.9
-6 -4 2 572.74 39.9
6 4 -2 537.55 37.4
6 4 -2 534.65 40.3
6 4 -2 595.14 41.1
6 4 -2 543.35 39.5
-6 -4 1 124.99 13
-6 -4 1 120.39 10.3
-6 -4 1 158.08 14
6 4 -1 136.99 13.5
6 4 -1 123.59 9.4
6 4 -1 132.59 13.8
6 4 -1 118.29 12
6 4 -1 109.99 10.6
-6 -4 0 8.7 4.1
-6 -4 0 30.5 7.2
-6 -4 0 24.2 4.2
6 4 0 21.4 4.3
6 4 0 23.9 3.5
6 4 0 24.3 5.8
6 4 0 34 7.9
6 4 0 34.2 7.3
-6 -4 -1 129.49 11
-6 -4 -1 139.99 14.9
-6 -4 -1 160.78 14.6
6 4 1 126.89 14
6 4 1 121.49 13.2
6 4 1 119.89 14
6 4 1 120.09 10.9
6 4 1 118.49 10.4
-6 -4 -2 608.44 42.1
-6 -4 -2 599.44 38.7
-6 -4 -2 598.14 42.2
6 4 2 519.85 38.4
6 4 2 564.74 40.5
6 4 2 545.75 41.9
6 4 2 575.44 41.1
6 4 2 573.74 38.4
-6 -4 -3 69.89 11
-6 -4 -3 98.89 12.2
-6 -4 -3 103.69 9.4
6 4 3 99.59 8.8
6 4 3 89.59 10.3
6 4 3 102.99 12.6
6 4 3 96.59 12
6 4 3 101.79 11
-6 -4 -4 83.99 9.1
-6 -4 -4 58.99 10.2
6 4 4 74.09 7
6 4 4 74.49 9.1
6 4 4 98.49 12.1
6 4 4 74.39 9.8
6 4 4 89.79 10.8
-6 -4 -5 50.69 7.1
6 4 5 51.09 7.5
6 4 5 50.39 4.7
6 4 5 57.09 7.8
6 4 5 44.2 8.1
6 4 5 54.79 9.4
-6 -4 -6 51.89 7.2
6 4 6 48.3 9
6 4 7 68.59 11.7
6 4 8 98.49 14.4
6 4 9 63.69 12.3
6 4 10 9.4 6.8
6 4 11 23.3 9.4
6 4 12 17.2 9.9
-6 -3 12 10 6.4
-6 -3 11 3.8 5.4
-6 -3 10 30.6 8.2
-6 -3 10 28.8 8.2
-6 -3 9 13.8 7.1
-6 -3 9 15.7 6
-6 -3 8 116.79 14
-6 -3 8 90.79 14.1
-6 -3 8 106.29 11.6
-6 -3 7 91.49 9.9
-6 -3 7 80.49 11.5
-6 -3 7 89.59 12.9
-6 -3 6 178.78 14.3
-6 -3 6 182.88 16.7
-6 -3 6 190.48 17.3
6 3 -6 188.38 16.4
-6 -3 5 60.09 8.4
-6 -3 5 49.2 7.9
-6 -3 5 49.3 6
6 3 -5 47.2 8
-6 -3 4 12.6 4.3
6 3 -4 18.2 5.3
-6 -3 3 72.49 9
-6 -3 3 53.99 9.9
-6 -3 3 87.19 6.1
6 3 -3 72.19 7
6 3 -3 84.39 10.9
6 3 -3 68.69 9.4
-6 -3 2 295.27 21.2
-6 -3 2 259.97 18.5
-6 -3 2 254.97 19.8
-6 -3 2 288.27 21.5
-6 -3 2 273.47 21.6
6 3 -2 278.77 21.8
6 3 -2 264.77 21.7
6 3 -2 291.77 21.4
6 3 -2 242.28 18.9
-6 -3 1 868.61 54.59
-6 -3 1 802.72 56.99
-6 -3 1 758.52 56.09
-6 -3 1 986.4 55.39
6 3 -1 790.12 54.69
6 3 -1 904.21 56.99
6 3 -1 854.71 57.79
-6 -3 0 61.09 11.7
-6 -3 0 72.79 10.1
-6 -3 0 84.79 7.8
6 3 0 118.19 11.3
6 3 0 75.49 9.8
6 3 0 78.89 7
6 3 0 102.79 12.9
6 3 0 98.89 8.1
-6 -3 -1 943.01 60.99
-6 -3 -1 980.8 58.19
-6 -3 -1 907.61 60.99
6 3 1 860.41 57.49
6 3 1 837.12 60.29
6 3 1 841.32 57.69
6 3 1 928.11 61.39
6 3 1 888.11 59.79
-6 -3 -2 260.37 22.1
-6 -3 -2 294.07 23
-6 -3 -2 276.27 19.8
6 3 2 297.77 23
6 3 2 256.57 19.4
6 3 2 257.67 21.6
6 3 2 297.27 21.7
6 3 2 267.47 19.9
-6 -3 -3 107.39 13.7
-6 -3 -3 77.99 11.1
-6 -3 -3 72.79 8
6 3 3 65.19 9.3
6 3 3 70.79 8.8
6 3 3 66.49 8.6
6 3 3 74.19 7
6 3 3 87.29 11.2
-6 -3 -4 19.6 4.2
-6 -3 -4 9.7 5.8
6 3 4 19.5 4.5
6 3 4 24.2 3.4
6 3 4 18.3 5
6 3 4 22.8 5.5
6 3 4 20.8 4.9
-6 -3 -5 45.5 6.1
6 3 5 35.7 7
6 3 5 50.49 5.9
6 3 5 46.6 5.6
6 3 5 39.8 7.6
-6 -3 -6 165.88 14.1
6 3 6 203.68 17.6
6 3 7 86.29 12.7
6 3 8 100.39 14.3
6 3 9 10.7 6.4
6 3 10 36.6 9.7
6 3 11 -5.7 5.2
6 3 12 59.19 14.6
-6 -2 12 24.6 8
-6 -2 11 44 10.7
-6 -2 10 72.79 12.1
-6 -2 10 60.59 11.6
-6 -2 9 62.19 11.6
-6 -2 9 44.4 9.6
-6 -2 9 54.99 8.9
-6 -2 8 11.7 5.6
-6 -2 8 17.4 6.2
-6 -2 8 25.8 5.7
-6 -2 7 41.4 8.1
-6 -2 7 40.7 8.1
-6 -2 7 49.9 7
6 2 -7 34.3 7.6
-6 -2 6 134.59 11.9
-6 -2 6 144.09 13.9
-6 -2 6 144.79 13.6
6 2 -6 148.19 13.9
-6 -2 5 542.55 39.4
-6 -2 5 594.04 39.8
-6 -2 5 561.84 37.7
6 2 -5 578.34 40
-6 -2 4 70.69 8.6
-6 -2 4 71.09 9.2
6 2 -4 86.69 10.6
-6 -2 3 90.59 10.6
-6 -2 3 109.79 7.3
6 2 -3 119.89 11.2
6 2 -3 110.69 10.9
-6 -2 2 277.37 22.1
-6 -2 2 264.97 20.2
-6 -2 2 279.77 18.9
-6 -2 2 286.17 21
6 2 -2 265.07 21.4
6 2 -2 318.27 22.3
6 2 -2 273.87 21.6
-6 -2 1 437.26 30.5
-6 -2 1 569.44 31.7
-6 -2 1 424.66 32.7
-6 -2 1 424.76 32.3
-6 -2 1 469.65 33
6 2 -1 465.55 32.8
6 2 -1 488.75 33.2
6 2 -1 513.35 34.1
6 2 -1 420.16 30.6
-6 -2 0 27.1 3.8
-6 -2 0 21.7 4.7
-6 -2 0 20.3 3.6
-6 -2 0 11.8 3.4
-6 -2 0 12.9 4
6 2 0 22.3 3.6
6 2 0 19.9 4.7
6 2 0 49.99 8
6 2 0 15.1 4.4
-6 -2 -1 540.25 34.8
-6 -2 -1 394.26 28.7
-6 -2 -1 444.46 29.8
-6 -2 -1 454.15 33.1
6 2 1 440.76 32
6 2 1 436.86 32.7
6 2 1 435.76 31.2
6 2 1 435.56 29.5
6 2 1 460.05 29.7
-6 -2 -2 274.67 19.3
-6 -2 -2 253.67 21.3
6 2 2 267.47 19
6 2 2 288.77 21.8
6 2 2 264.67 20.5
6 2 2 261.57 19.4
6 2 2 287.67 21.4
-6 -2 -3 114.49 9.5
-6 -2 -3 95.99 11.3
-6 -2 -3 114.89 12.4
6 2 3 123.69 11
6 2 3 109.09 10.7
6 2 3 117.09 11.4
6 2 3 116.19 9.1
6 2 3 111.19 10.2
-6 -2 -4 63.69 10.2
-6 -2 -4 62.09 6.7
6 2 4 60.39 8.2
6 2 4 54.69 6.7
6 2 4 64.69 5.3
6 2 4 56.69 6.9
6 2 4 65.69 8.6
-6 -2 -5 543.95 36.9
6 2 5 568.94 39.5
6 2 5 561.44 38.8
-6 -2 -6 147.39 11.9
6 2 6 139.69 15.7
6 2 7 39.3 8.5
6 2 8 22.7 7.3
6 2 9 58.39 11.6
6 2 10 84.49 14.9
6 2 11 16.6 8.2
6 2 12 32.1 11.1
-6 -1 12 17 8.1
-6 -1 11 48.6 11
-6 -1 11 78.09 12.3
-6 -1 10 78.99 12.8
-6 -1 10 50.69 10.5
-6 -1 9 61.59 10.2
-6 -1 9 85.59 13.6
-6 -1 9 122.09 14.4
-6 -1 8 111.09 12.9
-6 -1 8 118.79 15.4
-6 -1 8 109.59 13.6
-6 -1 7 95.29 12.4
-6 -1 7 73.89 9.8
-6 -1 7 99.39 12.2
6 1 -7 88.09 12
-6 -1 6 168.28 15.5
-6 -1 6 170.88 14.1
-6 -1 6 166.18 15.1
6 1 -6 174.28 15.7
-6 -1 5 174.28 13.9
-6 -1 5 179.88 15.4
-6 -1 5 167.68 14.8
6 1 -5 184.88 16
-6 -1 4 407.06 27.7
-6 -1 4 384.06 28.3
-6 -1 4 450.65 29.8
6 1 -4 404.96 30
-6 -1 3 30.9 5.5
6 1 -3 29.9 6.2
-6 -1 2 102.09 9.1
-6 -1 2 68.39 8.5
-6 -1 2 101.19 7
6 1 -2 97.39 11.3
6 1 -2 76.99 9.7
-6 -1 1 1431.06 81.39
-6 -1 1 1047.7 80.19
-6 -1 1 1268.87 82.69
6 1 -1 1412.66 83.69
6 1 -1 1104.99 82.19
6 1 -1 1423.56 83.39
-6 -1 0 344.07 24.2
-6 -1 0 394.46 27.2
-6 -1 0 343.77 24
6 1 0 343.87 26.5
6 1 0 377.76 25.9
-6 -1 -1 956.6 64.59
-6 -1 -1 1033.2 64.89
-6 -1 -1 991.6 61.19
-6 -1 -1 944.61 61.99
6 1 1 919.61 63.79
6 1 1 956.1 61.79
6 1 1 1021.2 64.59
6 1 1 952.5 63.29
-6 -1 -2 82.09 10.1
-6 -1 -2 75.89 7.1
-6 -1 -2 74.79 8.8
-6 -1 -2 80.69 5.8
6 1 2 85.09 7.4
6 1 2 78.99 9.4
6 1 2 79.59 9.2
6 1 2 76.39 6.8
6 1 2 84.49 8.9
-6 -1 -3 34 4.5
-6 -1 -3 23 5.3
-6 -1 -3 29.3 6.2
6 1 3 28.1 5.2
6 1 3 30.7 3.9
6 1 3 26.4 4.7
6 1 3 25.7 4.9
6 1 3 26.4 5.1
-6 -1 -4 428.06 32.6
-6 -1 -4 408.16 28
6 1 4 397.86 29.1
6 1 4 415.26 28.6
6 1 4 418.46 26.8
6 1 4 443.56 29.1
6 1 4 417.56 29.7
-6 -1 -5 164.68 13
6 1 5 194.98 14.5
6 1 5 156.58 14.8
-6 -1 -6 181.58 14
6 1 6 197.28 17
6 1 7 78.79 11.9
6 1 8 109.39 14.8
6 1 9 74.29 12.6
6 1 10 71.19 13.1
6 1 11 91.89 16.4
6 1 12 20.1 9.5
-6 0 12 38.4 9.7
-6 0 12 30.9 9.8
-6 0 11 44.5 10.9
-6 0 10 149.88 18.2
-6 0 10 153.78 17.9
-6 0 10 183.98 21.1
-6 0 9 37.2 7.8
-6 0 9 49.2 9.7
-6 0 9 46.3 9.7
-6 0 8 169.48 16.5
-6 0 8 162.08 15.4
-6 0 8 162.38 17.5
-6 0 7 204.18 16.4
-6 0 7 188.48 16.6
-6 0 7 155.68 17.5
6 0 -7 169.48 16.9
-6 0 6 141.19 13
-6 0 6 150.28 13.8
-6 0 6 159.18 16
6 0 -6 155.08 14.9
-6 0 5 295.47 22.2
-6 0 5 316.67 22.1
-6 0 5 288.77 22.7
6 0 -5 287.27 23.8
-6 0 4 298.27 21.5
-6 0 4 311.57 22.7
-6 0 4 302.47 21.7
6 0 -4 301.57 24
-6 0 3 654.03 43.5
-6 0 3 662.33 44.6
6 0 -3 700.73 46.5
-6 0 2 160.98 12.9
-6 0 2 164.58 13.3
-6 0 2 165.08 11.4
6 0 -2 173.48 14.6
6 0 -2 156.28 14.3
-6 0 1 261.87 17.3
-6 0 1 232.88 19.3
6 0 -1 271.77 19.7
6 0 -1 234.68 19.3
-6 0 0 2982.1 187.98
-6 0 0 3002.6 186.98
6 0 0 3038.4 188.98
-6 0 -1 151.48 13.9
-6 0 -1 132.39 11.5
6 0 1 164.68 13.8
6 0 1 159.98 14
6 0 1 165.78 13.1
-6 0 -2 152.18 13.9
-6 0 -2 174.08 14.4
-6 0 -2 145.29 11.7
6 0 2 152.48 13.5
6 0 2 161.58 13.6
6 0 2 149.88 11.5
6 0 2 180.28 12.4
6 0 2 152.08 12.8
-6 0 -3 660.63 43.9
-6 0 -3 596.44 43.8
-6 0 -3 616.04 41.6
6 0 3 655.93 43.3
6 0 3 613.14 42.9
6 0 3 671.33 42.5
6 0 3 666.53 42.5
6 0 3 653.33 41.1
-6 0 -4 304.47 20.4
-6 0 -4 277.77 24.4
6 0 4 291.07 18.9
6 0 4 291.97 20.7
6 0 4 302.17 21.9
6 0 4 289.37 21.9
6 0 4 301.17 21.1
6 0 4 293.87 20.9
-6 0 -5 296.77 20.4
6 0 5 263.87 22.4
6 0 5 286.57 22.6
6 0 5 317.87 21.2
-6 0 -6 141.09 11.4
6 0 6 135.79 15.2
6 0 6 157.68 14.1
6 0 7 206.48 18.3
6 0 7 183.78 17.9
6 0 8 187.98 18.3
6 0 8 188.48 21
6 0 9 44.9 9.9
6 0 9 33.8 8.9
6 0 10 151.18 20.2
6 0 10 198.48 22.6
6 0 11 31.7 9.6
6 0 11 27.9 9.1
6 0 12 32.7 11.5
-6 1 12 50.19 11.3
-6 1 11 95.09 19.1
-6 1 11 85.39 13.4
-6 1 10 41.8 9.3
-6 1 10 41.5 10.2
-6 1 10 39.2 9
-6 1 9 95.59 13
-6 1 9 67.39 12
-6 1 9 91.79 13.1
-6 1 8 120.29 14.4
-6 1 8 122.19 14.9
-6 1 8 126.39 15.2
6 -1 -8 128.49 16.3
-6 1 7 108.39 13.2
-6 1 7 106.59 12.5
-6 1 7 82.09 11.7
6 -1 -7 101.89 14.1
-6 1 6 194.08 15.6
-6 1 6 165.68 15.7
-6 1 6 170.48 15.1
6 -1 -6 177.18 17.2
-6 1 5 164.68 14.9
-6 1 5 182.78 15.8
-6 1 5 194.38 15.1
6 -1 -5 190.18 12.5
6 -1 -5 197.28 17.7
-6 1 4 429.26 30
-6 1 4 438.06 29.6
6 -1 -4 437.46 32.8
-6 1 3 33.7 5
-6 1 3 32.6 4.3
6 -1 -3 48.6 8.2
-6 1 2 75.19 6.4
-6 1 2 83.29 9
6 -1 -2 82.29 9
6 -1 -2 75.59 10.5
-6 1 1 1092.69 71.09
-6 1 1 1001.3 68.89
6 -1 -1 1182.68 71.49
-6 1 0 489.35 29
-6 1 0 423.86 30.8
6 -1 0 428.46 30.8
6 -1 0 394.16 30.6
-6 1 -1 931.31 60.69
-6 1 -1 919.01 62.69
6 -1 1 1003.4 62.39
6 -1 1 960.6 62.79
-6 1 -2 71.19 6.8
-6 1 -2 67.49 8.4
6 -1 2 81.39 8.8
6 -1 2 77.49 8.7
6 -1 2 83.19 8
-6 1 -3 39 4.7
-6 1 -3 28.7 5.9
6 -1 3 34.1 4.9
6 -1 3 28.6 4.6
6 -1 3 29.9 3.8
6 -1 3 33.4 5.9
6 -1 3 24.5 4.8
6 -1 3 30.1 5.4
-6 1 -4 430.36 27.5
-6 1 -4 365.56 31.3
6 -1 4 408.36 27.9
6 -1 4 419.36 28.1
6 -1 4 423.36 29.3
6 -1 4 387.86 27.3
6 -1 4 398.56 25.9
6 -1 4 411.56 28.4
-6 1 -5 194.98 14
6 -1 5 168.28 15.5
6 -1 5 193.58 16.4
6 -1 5 187.08 15.6
-6 1 -6 176.98 13.5
6 -1 6 177.88 16.7
6 -1 6 180.28 15.9
6 -1 7 88.19 11.7
6 -1 7 83.19 12.3
6 -1 8 130.69 15.7
6 -1 8 115.19 16
6 -1 9 99.99 15.7
6 -1 9 109.89 15.4
6 -1 10 141.99 17.9
6 -1 10 104.09 16.7
6 -1 11 103.59 16.9
6 -1 11 98.19 16.8
6 -1 12 16.4 8.9
6 -1 12 28.4 10.6
-6 2 12 32.7 9.4
-6 2 11 27.8 8.3
-6 2 10 83.39 13.1
-6 2 10 66.99 11.6
-6 2 9 42.7 9.7
-6 2 9 70.49 11.2
-6 2 9 75.89 11.1
-6 2 8 12.8 5.4
-6 2 8 14 5.9
-6 2 8 13.7 5.1
6 -2 -8 24.7 8
-6 2 7 46.7 8.2
-6 2 7 27.1 6.2
-6 2 7 42.8 8.4
6 -2 -7 33.8 8.5
-6 2 6 136.69 13.2
-6 2 6 130.69 14.8
-6 2 6 157.98 13.2
6 -2 -6 157.98 18
-6 2 5 529.05 37.2
-6 2 5 597.04 38.6
6 -2 -5 548.55 35.4
6 -2 -5 542.15 40.7
-6 2 4 61.89 6.7
-6 2 4 59.19 7.6
6 -2 -4 69.59 10.7
-6 2 3 109.09 9.5
-6 2 3 106.69 8.3
-6 2 3 105.69 7.5
-6 2 3 109.89 9.7
6 -2 -3 126.29 14.5
-6 2 2 265.17 20.2
-6 2 2 274.27 18.3
6 -2 -2 253.17 20.4
6 -2 -2 285.27 22
-6 2 1 468.25 33
-6 2 1 425.66 34.6
6 -2 -1 561.74 35.6
6 -2 -1 618.14 37
-6 2 0 27.2 4.4
-6 2 0 48.8 8.5
6 -2 0 70.99 13.6
6 -2 0 24.7 6.3
-6 2 -1 415.76 31.2
-6 2 -1 438.36 29.2
6 -2 1 468.85 31.1
6 -2 1 443.16 28.6
6 -2 1 415.56 31
-6 2 -2 255.37 18.8
-6 2 -2 256.77 21.1
6 -2 2 288.87 20
6 -2 2 280.87 19.2
6 -2 2 252.97 20.6
-6 2 -3 108.19 9
-6 2 -3 105.09 11.4
6 -2 3 96.79 9.6
6 -2 3 112.09 10.8
6 -2 3 109.99 9.4
6 -2 3 99.89 10.4
6 -2 3 97.99 8.8
-6 2 -4 50.59 8.8
-6 2 -4 48.4 6.2
6 -2 4 45.5 7.6
6 -2 4 67.89 7.1
6 -2 4 64.39 7.6
6 -2 4 66.09 5.1
6 -2 4 64.39 7.3
-6 2 -5 527.25 36.4
6 -2 5 574.34 39.4
6 -2 5 548.45 37.7
-6 2 -6 138.59 11.3
6 -2 6 130.59 12.9
6 -2 6 140.69 15.9
6 -2 7 48.1 8
6 -2 7 21.5 6.9
6 -2 8 15.7 6.5
6 -2 8 19.2 6.1
6 -2 9 62.19 10.9
6 -2 9 44.8 10.6
6 -2 10 79.79 14.6
6 -2 10 96.89 14.8
6 -2 11 43.8 11.8
6 -2 11 78.49 13.3
6 -2 12 29.8 11.2
-6 3 12 28.8 9.2
-6 3 11 2.1 4.8
-6 3 10 34 8.9
-6 3 9 17.6 6.8
-6 3 9 23.3 6.9
-6 3 8 130.29 15.3
-6 3 8 126.69 14.2
-6 3 8 110.99 14.6
6 -3 -8 137.59 18.3
-6 3 7 97.79 10.9
-6 3 7 84.49 11.4
6 -3 -7 61.09 12.3
-6 3 6 174.68 14.3
-6 3 6 171.78 15.6
6 -3 -6 169.38 19.8
-6 3 5 49.99 7.8
-6 3 5 42.9 5.8
6 -3 -5 51.29 5.5
6 -3 -5 49.7 9.8
-6 3 4 18.8 4.4
-6 3 4 19.6 3.3
6 -3 -4 18.2 6.5
6 -3 -4 20.5 3.4
-6 3 3 78.99 6
-6 3 3 80.29 8.8
-6 3 3 71.89 8.6
-6 3 3 91.29 6.7
6 -3 -3 74.39 11.7
-6 3 2 276.27 19.8
-6 3 2 270.17 21.3
-6 3 2 298.17 19.4
6 -3 -2 291.87 23.5
6 -3 -2 256.67 21.6
-6 3 1 890.11 59.89
-6 3 1 880.71 57.59
6 -3 -1 848.52 59.99
6 -3 -1 999.3 61.69
-6 3 0 103.69 10.8
-6 3 0 90.29 8.2
6 -3 0 84.49 6.9
6 -3 0 78.79 11.1
6 -3 0 113.99 11.2
-6 3 -1 871.91 60.49
-6 3 -1 866.11 57.79
6 -3 1 911.81 59.69
6 -3 1 967.7 60.49
6 -3 1 860.61 57.09
-6 3 -2 251.67 19.1
-6 3 -2 280.67 22.1
6 -3 2 280.27 20.6
6 -3 2 259.97 21.3
6 -3 2 267.37 19.4
-6 3 -3 84.69 8.7
-6 3 -3 62.49 9.8
6 -3 3 72.59 7.1
6 -3 3 83.49 9
6 -3 3 90.89 9.7
6 -3 3 86.19 11.1
-6 3 -4 25.2 6.1
-6 3 -4 18.2 3.8
6 -3 4 14.8 3.6
6 -3 4 16.8 4.6
6 -3 4 24 4.3
6 -3 4 18 4.9
6 -3 4 21.4 5
-6 3 -5 44.9 6.3
6 -3 5 44.6 7.9
6 -3 5 52.59 7
-6 3 -6 166.68 13.9
6 -3 6 187.28 17.1
6 -3 6 180.38 15.5
6 -3 7 80.89 11
6 -3 7 77.49 12.5
6 -3 8 109.39 16.2
6 -3 8 140.59 15.9
6 -3 9 26.9 8.8
6 -3 9 29.3 7.8
6 -3 10 71.89 13.3
6 -3 10 55.19 11.1
6 -3 11 5.7 7
6 -3 12 19.4 9.6
-6 4 12 23.1 8.3
-6 4 11 16.7 7.2
-6 4 10 2.1 4.9
-6 4 9 73.19 11.8
-6 4 9 70.29 11.9
6 -4 -9 80.49 14.6
-6 4 8 122.19 15.7
6 -4 -8 126.89 18.6
-6 4 7 61.09 10
6 -4 -7 57.39 12.2
-6 4 6 40.9 6
-6 4 6 50.49 8.4
6 -4 -6 49.1 10.6
-6 4 5 49.1 8
-6 4 5 51.89 5.8
6 -4 -5 42.5 5.6
6 -4 -5 48 10.5
-6 4 4 84.39 8.2
-6 4 4 76.39 5.8
-6 4 4 85.59 5.8
-6 4 4 91.09 10.2
-6 4 4 87.39 9
6 -4 -4 84.89 7.8
6 -4 -4 85.99 13.3
-6 4 3 113.49 9.2
-6 4 3 113.39 11.3
-6 4 3 106.59 10.4
-6 4 3 119.59 11.8
6 -4 -3 109.49 15.3
-6 4 2 564.74 40.5
-6 4 2 601.64 38.5
-6 4 2 588.84 38
6 -4 -2 504.75 40.4
6 -4 -2 637.04 42.9
-6 4 1 119.49 11.2
-6 4 1 135.09 13.9
6 -4 -1 164.98 14.8
6 -4 -1 149.99 16.7
-6 4 0 26.8 4.5
-6 4 0 16 5.3
6 -4 0 32.2 7.4
6 -4 0 28.2 3.3
6 -4 0 23.6 6.3
-6 4 -1 139.89 14.2
-6 4 -1 135.69 11.4
6 -4 1 122.99 10.4
6 -4 1 134.69 14.9
6 -4 1 135.19 13.7
-6 4 -2 564.24 37
-6 4 -2 522.15 39.5
6 -4 2 561.34 36.8
6 -4 2 546.25 38.2
6 -4 2 526.15 39.2
-6 4 -3 112.79 9.8
-6 4 -3 97.39 12.2
6 -4 3 92.89 10.5
6 -4 3 103.99 11.2
6 -4 3 100.29 11.5
-6 4 -4 58.89 10.3
-6 4 -4 78.39 9
6 -4 4 97.99 11.4
6 -4 4 75.99 7.5
6 -4 4 75.89 9.1
6 -4 4 91.49 8.3
-6 4 -5 46 6.5
6 -4 5 42.9 7.9
6 -4 5 41.1 6.6
6 -4 5 44.5 3.8
6 -4 5 39.8 6.3
6 -4 5 54.59 7
-6 4 -6 47.1 6.9
6 -4 6 52.29 7.7
6 -4 6 38.8 8.3
6 -4 7 54.49 10.6
6 -4 7 71.09 9.9
6 -4 8 113.59 17
6 -4 8 169.88 17.2
6 -4 9 69.39 12.6
6 -4 9 45.1 10.7
6 -4 10 4.4 5.9
6 -4 11 10.9 7.1
6 -4 12 25.5 9.8
-6 5 11 1.3 5.6
-6 5 10 3 5.2
-6 5 9 24.1 7.4
6 -5 -9 12 8.9
-6 5 8 32.3 8.4
6 -5 -8 22.7 9.7
-6 5 7 57.19 9.8
6 -5 -7 38.4 11.3
-6 5 6 42.6 8.3
6 -5 -6 63.29 13.6
-6 5 5 96.69 12
6 -5 -5 118.69 10.2
6 -5 -5 111.69 17
-6 5 4 5.3 3.1
-6 5 4 7.8 3.6
-6 5 4 1.1 1.7
-6 5 4 9.8 3.8
6 -5 -4 -1.4 3.7
6 -5 -4 -1.3 2.1
-6 5 3 43.8 8
-6 5 3 41.6 6.7
-6 5 3 52.09 8.8
-6 5 3 60.49 6.6
-6 5 2 10.3 4.8
-6 5 2 7.5 3.1
-6 5 2 4.4 2.7
6 -5 -2 5 4.6
-6 5 1 6.3 4
-6 5 1 9.3 3.4
6 -5 -1 8.9 1.7
6 -5 -1 17.1 5.8
-6 5 0 15.2 4
-6 5 0 36.9 9.3
6 -5 0 29.4 7.8
6 -5 0 20.9 3.4
-6 5 -1 10.2 3.5
-6 5 -1 13.1 7.1
6 -5 1 11.6 4.9
6 -5 1 5.9 2.6
6 -5 1 13.8 5.9
-6 5 -2 4.4 4.3
-6 5 -2 3.9 2.5
6 -5 2 5.9 3.1
6 -5 2 4.5 4.1
6 -5 2 -0.5 3.4
-6 5 -3 44.3 9.3
-6 5 -3 41.5 6.6
6 -5 3 50.59 9.2
6 -5 3 35.3 6.7
6 -5 3 51.19 7.9
-6 5 -4 6 3.1
-6 5 -4 1.5 4.5
6 -5 4 2.9 3.1
6 -5 4 7.2 4
6 -5 4 3.7 2
6 -5 4 3.4 3.9
-6 5 -5 133.59 12.4
6 -5 5 80.79 11.8
6 -5 5 104.89 11
6 -5 5 97.69 9.6
-6 5 -6 38 6.7
6 -5 6 37.5 8.6
6 -5 6 55.89 7.7
6 -5 7 39.7 7.4
6 -5 7 27.8 8
6 -5 8 26.9 8.2
6 -5 9 23.5 8.7
6 -5 10 -2.6 5.3
6 -5 11 -9.5 5.7
-6 6 11 23.8 8.9
-6 6 10 6.3 5.9
-6 6 9 16.7 6.7
6 -6 -9 15.5 9.9
-6 6 8 0.6 3.7
6 -6 -8 -2.7 6.7
-6 6 7 22.3 6.8
6 -6 -7 60.09 14
-6 6 6 31.6 7.2
6 -6 -6 45.4 11.5
-6 6 5 0.8 3.4
-6 6 5 3.6 3.5
-6 6 5 3.6 3
6 -6 -5 6.7 3.3
-6 6 4 41.2 5.4
-6 6 4 27.5 6
-6 6 4 43.4 8.4
-6 6 4 33.4 6.9
6 -6 -4 31.2 5.5
-6 6 3 2.6 3.1
-6 6 3 1.8 2.4
-6 6 3 2.4 2.6
-6 6 3 5.4 4.1
-6 6 2 -0.3 2.1
-6 6 2 5.9 4.9
-6 6 2 3.7 2.9
6 -6 -2 -4.5 3.4
-6 6 1 164.18 13.4
-6 6 1 152.78 16.5
6 -6 -1 140.39 10.6
6 -6 -1 152.48 16.8
-6 6 0 97.69 11.1
-6 6 0 123.79 14.3
6 -6 0 113.29 9.1
6 -6 0 93.49 14
-6 6 -1 136.59 15.8
-6 6 -1 141.39 12.6
6 -6 1 143.29 11.4
6 -6 1 114.09 14.7
-6 6 -2 0.5 2.4
-6 6 -2 0.9 3.7
6 -6 2 -0.4 2.4
6 -6 2 -2.7 2.7
-6 6 -3 3.9 3.2
-6 6 -3 5.6 5.2
6 -6 3 6 4.1
6 -6 3 5.3 3.7
6 -6 3 2.2 3.3
-6 6 -4 29.8 8.1
-6 6 -4 43.7 7.2
6 -6 4 43 7.8
6 -6 4 46.1 7.7
6 -6 4 31.3 7.4
6 -6 4 40.4 5.3
-6 6 -5 3.6 3.2
6 -6 5 -2.2 1.9
6 -6 5 2.2 3.3
6 -6 5 11.6 5.1
-6 6 -6 27.1 6.3
6 -6 6 27.1 8.3
6 -6 6 39.6 8.7
6 -6 6 32.6 6.4
6 -6 6 34.2 6.2
6 -6 7 42 10
6 -6 8 2.7 5.5
6 -6 9 13.6 7.9
6 -6 10 4.5 7.3
6 -6 11 24.4 9.8
-6 7 11 12.9 7.2
-6 7 10 2.7 5.5
6 -7 -10 4.4 13.7
-6 7 9 11.5 6.5
6 -7 -9 7 9.5
-6 7 8 136.79 17.5
6 -7 -8 127.59 21.9
-6 7 7 18.9 6.6
6 -7 -7 21.9 9.8
-6 7 6 18.4 6.1
-6 7 5 32.1 6.8
-6 7 5 22.9 6.5
-6 7 5 46.9 8.4
6 -7 -5 28.3 6
-6 7 4 23 6.6
-6 7 4 38.5 5.8
-6 7 4 24.7 5.7
-6 7 4 29 6.9
6 -7 -4 30.7 5.9
-6 7 3 56.19 9.9
-6 7 3 38 6.5
-6 7 3 60.69 8.5
-6 7 3 50.49 10.4
-6 7 2 71.49 12.8
-6 7 2 56.49 7.7
-6 7 2 54.59 8
6 -7 -2 48.6 11.7
-6 7 1 134.79 13.1
-6 7 1 131.19 16.6
6 -7 -1 150.58 11.1
6 -7 -1 160.18 17.5
-6 7 0 124.19 12.8
-6 7 0 83.79 12.1
6 -7 0 115.19 9.2
6 -7 0 74.99 13.4
-6 7 -1 141.49 16.4
-6 7 -1 150.28 13.2
6 -7 1 154.58 12.2
6 -7 1 93.69 15.3
-6 7 -2 48.8 7.7
-6 7 -2 42 10.1
6 -7 2 52.19 11.1
6 -7 2 50.89 7.5
-6 7 -3 80.69 9.8
6 -7 3 66.09 9.3
6 -7 3 40.1 8.6
-6 7 -4 37.4 6.7
6 -7 4 42 8.2
6 -7 4 33.2 7.4
6 -7 4 27.3 4.4
6 -7 4 24 6.9
-6 7 -5 26.6 6.4
6 -7 5 28 7.1
6 -7 5 24 7
-6 7 -6 15.9 5.5
6 -7 6 19 6.9
6 -7 6 14.4 4.8
6 -7 7 9.3 6.5
6 -7 8 100.89 15.7
6 -7 9 17.9 8.9
6 -7 10 4.1 6.9
6 -7 11 9.4 8.4
-6 8 10 22.3 8.7
6 -8 -10 18.4 12.8
-6 8 9 45.5 11.1
6 -8 -9 32.1 13.5
-6 8 8 68.49 12.4
6 -8 -8 106.19 21.1
-6 8 7 44.2 9.3
-6 8 6 139.99 16.3
-6 8 5 102.89 9.4
-6 8 5 81.99 12.7
-6 8 5 104.09 13.1
-6 8 5 83.79 12.2
6 -8 -5 99.09 11.6
-6 8 4 70.89 12.6
-6 8 4 73.79 10
-6 8 4 66.79 8.7
-6 8 4 69.69 12.3
-6 8 3 58.69 11.2
-6 8 3 72.59 13.1
-6 8 3 53.69 8.4
-6 8 3 75.39 9.4
-6 8 2 162.38 18.8
-6 8 2 183.48 20.3
-6 8 2 176.48 15.9
-6 8 2 196.38 15.6
-6 8 1 22.2 5.2
-6 8 1 11.7 5.6
6 -8 -1 38.2 6.1
-6 8 0 64.99 9.8
-6 8 0 62.39 12.8
6 -8 0 65.09 7.7
-6 8 -1 28.2 6.2
6 -8 1 33.9 5.9
-6 8 -2 189.18 16.7
6 -8 2 172.08 15.7
-6 8 -3 62.59 9.2
6 -8 3 51.19 11.5
6 -8 3 51.29 8.9
-6 8 -4 72.89 10.4
6 -8 4 72.49 11.1
6 -8 4 65.79 11
6 -8 4 44.1 10
-6 8 -5 102.89 12.7
6 -8 5 79.59 12.7
6 -8 5 63.99 11.6
-6 8 -6 157.08 16.7
6 -8 6 127.39 14.6
6 -8 6 144.79 18.3
6 -8 7 25.3 8.4
6 -8 8 74.29 13.6
6 -8 9 17.2 9.2
6 -8 10 25.6 11
-6 9 10 5.8 6.6
6 -9 -10 -9.2 10.4
-6 9 9 59.59 12.4
6 -9 -9 83.09 19.8
-6 9 8 16.2 7.1
6 -9 -8 21.6 12.2
-6 9 7 50.19 10.5
-6 9 6 32.5 8.1
-6 9 6 42.5 8.9
-6 9 6 45.7 8.4
-6 9 5 67.19 8.2
-6 9 5 70.69 11.9
-6 9 5 62.19 10.3
-6 9 5 50.29 10.3
6 -9 -5 53.79 9.1
-6 9 4 29.6 7.1
-6 9 4 14.4 7
-6 9 4 31 8.9
-6 9 4 32.7 6.1
-6 9 3 144.39 13
-6 9 3 120.69 14
-6 9 3 115.99 17.9
-6 9 2 8.8 5.8
-6 9 2 4.4 3.7
-6 9 2 7.8 3.9
-6 9 1 223.08 31.2
-6 9 1 230.68 19.9
-6 9 0 15.9 5.3
6 -9 0 10.1 5
-6 9 -1 221.88 20.3
6 -9 1 246.38 19.3
-6 9 -2 12.5 5.4
6 -9 2 9.6 4.7
-6 9 -3 129.89 15.1
6 -9 3 129.39 15.1
-6 9 -4 27.9 7.1
6 -9 4 29.4 7.7
-6 9 -5 54.59 9.8
6 -9 5 37.1 9.6
6 -9 5 64.59 11.7
-6 9 -6 38.5 8.5
6 -9 6 35.4 9.6
6 -9 6 36.5 8.8
6 -9 7 47.3 11.6
6 -9 7 36.3 7.1
6 -9 8 7.7 7.8
6 -9 9 60.89 14.7
6 -9 10 0.5 7.3
-6 10 9 8 7.2
6 -10 -9 9.6 12
-6 10 8 39.3 9.6
-6 10 7 27 8.6
-6 10 6 26 8.3
-6 10 6 28.4 7.8
-6 10 6 34 8.1
-6 10 5 95.49 13.3
-6 10 5 109.49 16.2
-6 10 5 69.09 12.5
-6 10 5 85.89 12.6
-6 10 4 76.39 10.2
-6 10 4 71.69 14.3
-6 10 4 64.09 10.2
-6 10 3 48.8 8
-6 10 3 48.1 8.7
-6 10 3 32 10.3
-6 10 2 59.69 9.7
-6 10 1 17.6 6
-6 10 0 210.28 19.6
-6 10 -1 15.5 5.6
-6 10 -2 48 9.4
6 -10 2 69.69 10.7
-6 10 -3 44.6 8.8
6 -10 3 30 7.5
-6 10 -4 66.79 11.5
6 -10 4 94.09 13.8
-6 10 -5 87.19 13.1
6 -10 5 84.09 14.2
-6 10 -6 43.7 9.8
6 -10 6 21.2 7.6
6 -10 6 22.7 9
6 -10 7 23.8 6.7
6 -10 7 17.1 8.8
6 -10 8 55.89 13.9
6 -10 9 -4.3 7.6
-6 11 8 4.5 5.4
-6 11 7 58.69 11.8
-6 11 6 47.8 10.3
-6 11 6 77.49 12.2
-6 11 5 61.89 10.5
-6 11 5 50.59 12.3
-6 11 4 116.69 19.8
-6 11 4 133.99 15.7
-6 11 4 157.68 16.6
-6 11 3 46.8 8.7
-6 11 3 60.19 10.3
-6 11 2 92.09 13
-6 11 1 104.49 14
-6 11 0 32.9 8.1
-6 11 -1 87.09 13.1
-6 11 -2 86.99 13.2
-6 11 -3 47.9 9.6
6 -11 3 60.09 11.2
-6 11 -4 147.09 18.7
6 -11 4 165.58 19.8
-6 11 -5 47.3 10.2
6 -11 5 46.8 11.1
-6 11 -6 77.79 13
6 -11 6 50.69 12.3
6 -11 7 37.2 11.9
6 -11 8 0.6 8
-6 12 7 27.8 8.7
-6 12 6 8.9 6.5
-6 12 5 7.9 8.3
-6 12 5 23.1 7.7
-6 12 4 19.5 6.5
-6 12 4 21.6 6.8
-6 12 3 0.7 4.5
-6 12 2 26.1 7.6
-6 12 1 66.39 11.8
-6 12 0 25.3 7.7
-6 12 -1 61.99 11.3
-6 12 -2 31.5 8.3
-6 12 -3 0 4.8
-6 12 -4 12.9 6.5
6 -12 4 2.6 6.9
-6 12 -5 27.5 8.9
6 -12 5 17 8.4
-6 12 -6 3.2 6.2
6 -12 6 -1.7 6.7
6 -12 7 17.8 9.5
6 -12 8 -1.7 8.5
-6 13 6 -2.5 5.3
-6 13 5 9.7 6.9
-6 13 4 10 6.4
-6 13 4 27.7 8
-6 13 3 0.2 4.7
-6 13 2 13 6.5
-6 13 1 23.5 7.7
-6 13 0 19.7 7.4
-6 13 -1 0.7 5
-6 13 -2 5.3 5.8
-6 13 -3 -1.6 4.5
-6 13 -4 11.7 7
-6 13 -5 2.4 5.7
-6 13 -6 -1.8 6.1
6 -13 6 -1.5 7.5
-6 14 5 16.8 9.4
-6 14 4 1.1 5.1
-6 14 3 39.8 10.1
-6 14 2 4.2 5.3
-6 14 1 8.4 6.6
-6 14 0 3.2 5.1
-6 14 -1 19 8.1
-6 14 -2 0.9 6.1
-6 14 -3 14.1 7.8
-6 14 -4 6.4 6.7
-6 14 -5 15.9 9
-6 15 3 15.4 8
-6 15 2 2.6 6.1
-6 15 1 5.3 6.3
-6 15 0 7.7 7.3
-6 15 -1 15.6 8
-6 15 -2 -3.6 5.6
-6 15 -3 14.4 8
-7 -15 3 -2.5 7.3
7 15 -3 5 7.2
7 15 -2 12.8 8.1
7 15 -1 18.6 9.2
-7 -15 0 20.5 7.4
7 15 0 23.3 9.1
-7 -15 -1 9.8 6.5
7 15 1 27.8 9.9
-7 -15 -2 16.5 7.9
7 15 2 11.2 7.6
-7 -15 -3 1.8 6.1
7 15 3 4.1 5.9
-7 -14 5 31.4 11.1
7 14 -5 20.9 9.9
-7 -14 4 -2 7.2
-7 -14 4 -1.2 6.5
7 14 -4 2.5 7.6
-7 -14 3 -0.2 7.4
7 14 -3 2 7.1
7 14 -2 3.6 6.9
-7 -14 1 25.3 7.5
7 14 -1 16.5 7.6
-7 -14 0 25.1 7.5
7 14 0 22.8 8.9
-7 -14 -1 13.7 7.1
7 14 1 27.3 8.7
-7 -14 -2 9.1 6.1
7 14 2 16.7 7.3
-7 -14 -3 1 6
7 14 3 8.3 6.4
-7 -14 -4 -4 5.4
7 14 4 7.5 6.6
-7 -14 -5 6.8 6.9
7 14 5 9.9 7
-7 -13 6 4.8 7.9
-7 -13 5 10.7 7.8
-7 -13 5 11.2 7.6
7 13 -5 11.1 8.1
-7 -13 4 11.3 8.4
7 13 -4 10.1 7.9
-7 -13 3 11.2 8.2
7 13 -3 26.2 9.4
7 13 -2 121.89 17.6
-7 -13 1 5.7 4.7
7 13 -1 -1.4 4.9
-7 -13 0 163.08 18.6
7 13 0 163.58 20.4
-7 -13 -1 -0.9 4.7
7 13 1 5.5 5.6
-7 -13 -2 109.39 15.8
7 13 2 145.29 18.4
-7 -13 -3 30.1 8.4
7 13 3 22.4 7.9
-7 -13 -4 -0.3 4.9
7 13 4 4.5 5.7
-7 -13 -5 28.2 8.5
7 13 5 14.6 6.6
-7 -13 -6 -1.5 5.4
7 13 6 4 7
-7 -12 7 3 8.3
-7 -12 6 -5.1 4.8
-7 -12 5 -1.2 5.3
-7 -12 5 -3.3 5.5
7 12 -5 2.3 6.4
-7 -12 4 9.6 7.3
7 12 -4 9.1 6.7
-7 -12 3 7.1 6.8
7 12 -3 13 7.4
-7 -12 2 6.9 4.4
7 12 -2 10.9 6.7
-7 -12 1 -1.6 3.5
7 12 -1 2.7 4.8
-7 -12 0 2.7 4.2
7 12 0 8.5 5.3
-7 -12 -1 -6.9 3.7
7 12 1 0.1 3.7
-7 -12 -2 5.1 5
7 12 2 10.8 6
-7 -12 -3 9.5 6
7 12 3 6.6 5.6
-7 -12 -4 5 5.1
7 12 4 10.9 5.7
-7 -12 -5 3.9 5.3
7 12 5 12 5.4
7 12 5 5 6.4
-7 -12 -6 3.9 6
7 12 6 -1.8 5.9
7 12 7 26 10.3
-7 -11 8 28.2 10.9
-7 -11 7 6.3 7.7
-7 -11 6 47.9 12.7
-7 -11 6 31.6 8.7
-7 -11 6 58.49 12.9
-7 -11 5 37.8 10.4
-7 -11 5 52.29 12.6
7 11 -5 65.09 12.1
-7 -11 4 28.7 9.3
7 11 -4 38.1 9
7 11 -4 36.9 10.4
-7 -11 3 28.1 9.2
7 11 -3 35.2 8.8
7 11 -3 54.39 12.2
-7 -11 2 69.59 10
7 11 -2 60.19 13.1
7 11 -2 67.59 11.7
-7 -11 1 28.9 7
7 11 -1 18 8.3
7 11 -1 34.5 8.9
-7 -11 0 9 4.8
7 11 0 8.4 6.8
7 11 0 5 5.1
-7 -11 -1 31.9 7.7
7 11 1 25.5 7.2
-7 -11 -2 40.7 8.4
7 11 2 56.19 9.8
-7 -11 -3 24.3 7.3
7 11 3 39.2 8.3
7 11 3 39.5 8.4
-7 -11 -4 27.6 7.5
7 11 4 31.5 7.8
7 11 4 26.7 8
-7 -11 -5 49.8 9.5
7 11 5 19.8 7.9
7 11 5 33.1 7.8
7 11 5 58.69 11.5
-7 -11 -6 40.6 9.3
7 11 6 41.6 10.3
7 11 6 17.1 7.5
7 11 7 6 7.5
7 11 8 19 8.8
-7 -10 9 33.8 12.2
-7 -10 8 10.1 8.3
-7 -10 7 -5.9 5.2
-7 -10 6 -1.6 3.9
-7 -10 6 6.8 7.3
-7 -10 6 1.1 5.3
-7 -10 5 17.4 8.2
-7 -10 5 30.5 8.5
-7 -10 5 31.7 9
7 10 -5 47.1 9.2
7 10 -5 33.2 10.2
-7 -10 4 46.1 11.3
7 10 -4 57.49 10.2
7 10 -4 66.89 12.4
-7 -10 3 56.69 11.4
7 10 -3 50.39 9.6
7 10 -3 35.6 10
-7 -10 2 -0.9 2.8
7 10 -2 0.1 4.1
7 10 -2 -0.8 5.4
-7 -10 1 167.48 15.5
7 10 -1 148.09 17.5
7 10 -1 188.58 22.6
-7 -10 0 93.89 11.7
7 10 0 107.69 16.3
7 10 0 81.69 12.4
-7 -10 -1 174.38 16
7 10 1 156.28 17.4
7 10 1 155.48 21.3
-7 -10 -2 5.6 4.5
7 10 2 -1.4 3.7
7 10 2 4 4
7 10 2 -3.1 4.7
-7 -10 -3 50.79 9.4
7 10 3 56.69 9.9
7 10 3 56.09 9.8
-7 -10 -4 57.19 9.6
7 10 4 44.9 11.4
7 10 4 50.89 9.1
7 10 4 69.99 11.1
-7 -10 -5 25.8 7.2
7 10 5 18.1 7.5
7 10 5 38.2 7.3
7 10 5 16.9 7.2
-7 -10 -6 3 4.8
7 10 6 3.5 4.9
7 10 6 10.5 7
7 10 7 -1.7 5.6
7 10 7 -4.3 4.8
7 10 8 7.1 7.3
7 10 9 13.2 8.2
-7 -9 10 20.6 10.5
-7 -9 9 18.4 9.2
-7 -9 8 27.9 9.7
-7 -9 7 1 6.1
-7 -9 6 61.99 12.1
-7 -9 6 64.79 13.7
-7 -9 5 59.19 12.3
-7 -9 5 47 10
-7 -9 5 50.79 10.1
7 9 -5 63.99 11.4
7 9 -5 62.89 10.6
-7 -9 4 98.79 15.3
-7 -9 4 111.59 16.4
7 9 -4 147.69 18.1
7 9 -4 121.99 14.9
-7 -9 3 32.7 8.5
-7 -9 3 38.1 6.5
7 9 -3 34.1 7.8
7 9 -3 34 9.2
-7 -9 2 112.89 11.9
7 9 -2 81.69 13.6
7 9 -2 81.19 11.7
-7 -9 1 45.3 7.6
7 9 -1 38.8 8
7 9 -1 26.4 8.2
-7 -9 0 136.49 14.7
7 9 0 147.79 18.9
7 9 0 132.69 15.2
-7 -9 -1 33.6 6.9
7 9 1 23.7 8.2
7 9 1 20.5 6.3
7 9 1 33.4 6.1
-7 -9 -2 93.89 12.1
7 9 2 102.79 16.7
7 9 2 99.89 11.9
7 9 2 94.19 12.3
-7 -9 -3 35.9 7.5
7 9 3 30.8 6.8
7 9 3 43.4 10.8
7 9 3 27.1 8.9
7 9 3 25.6 6.7
-7 -9 -4 117.89 14
7 9 4 105.79 17.7
7 9 4 126.89 14.2
7 9 4 126.99 15.4
-7 -9 -5 51.99 9.2
7 9 5 48.6 11.2
7 9 5 43.7 9.2
7 9 5 55.39 8.4
-7 -9 -6 57.39 9.6
7 9 6 32.6 8.3
7 9 6 52.49 11
7 9 6 56.89 11.2
7 9 7 4.1 5
7 9 7 6 7
7 9 7 0.4 5.9
7 9 8 25.2 9.4
7 9 9 48 12
7 9 10 10.2 7.7
-7 -8 10 42.4 12.5
-7 -8 9 3.5 6.6
-7 -8 8 48.8 11.6
-7 -8 7 24.6 9
-7 -8 6 8.6 5.5
-7 -8 6 20.1 8.5
-7 -8 5 66.19 13.2
-7 -8 5 81.49 12.2
-7 -8 5 57.09 10.2
7 8 -5 77.69 11
7 8 -5 59.89 10.9
-7 -8 4 3.4 4.4
-7 -8 4 7.5 5.2
7 8 -4 7.7 4.8
7 8 -4 12 5.7
-7 -8 3 101.09 10.6
-7 -8 3 78.69 13.2
-7 -8 3 106.09 16.2
7 8 -3 87.59 13.7
7 8 -3 110.19 12.7
-7 -8 2 109.39 16.9
-7 -8 2 121.19 12.2
7 8 -2 82.49 12
7 8 -2 157.88 18.1
-7 -8 1 -0.2 2.4
7 8 -1 1.7 3.3
7 8 -1 5.2 4.2
-7 -8 0 212.18 17.2
-7 -8 0 188.38 21.1
7 8 0 208.98 15.9
7 8 0 191.08 17.5
7 8 0 203.28 20
-7 -8 -1 3.1 3.5
7 8 1 3.2 4.3
7 8 1 3 3.1
7 8 1 5.2 4.9
7 8 1 5.5 3.7
-7 -8 -2 103.09 12.1
7 8 2 127.59 13.1
7 8 2 129.69 13.7
7 8 2 87.59 14.8
7 8 2 93.49 15
-7 -8 -3 111.79 12.2
7 8 3 117.39 13.1
7 8 3 91.39 11.2
7 8 3 84.49 14.1
7 8 3 65.99 11.7
-7 -8 -4 8.5 4.8
7 8 4 10 6.4
7 8 4 8.7 8.3
7 8 4 12.8 4.6
7 8 4 6.9 4.6
7 8 4 6.5 4.3
-7 -8 -5 68.59 10.1
7 8 5 65.89 11
7 8 5 64.39 12
7 8 5 50.99 10.6
7 8 5 87.09 9.8
-7 -8 -6 20.5 6.3
7 8 6 14.4 5.8
7 8 6 11.1 6.3
7 8 6 19.2 7.1
7 8 7 18.2 5.7
7 8 7 21.5 7.7
7 8 7 14.3 4.6
7 8 8 53.99 11.8
7 8 9 1.9 6.6
7 8 10 60.49 14
-7 -7 11 7.1 6.2
-7 -7 10 3.9 8.7
-7 -7 9 7.3 7.1
-7 -7 8 105.79 17.5
-7 -7 7 7.9 6.2
-7 -7 6 18.2 6.7
-7 -7 5 3.2 5.7
-7 -7 5 14.6 5.5
7 7 -5 8 4.4
7 7 -5 10.8 5.3
-7 -7 4 16.8 6.1
-7 -7 4 5.3 4.1
7 7 -4 5.9 4
7 7 -4 8.3 4.8
-7 -7 3 7.5 5.3
-7 -7 3 5 4.2
-7 -7 3 14.2 3.5
7 7 -3 8.9 4.4
7 7 -3 7.5 4.3
-7 -7 2 14.5 5.6
-7 -7 2 11.1 5.1
-7 -7 2 16.4 4
7 7 -2 26.8 8.9
7 7 -2 7.7 5.8
7 7 -2 10 4.9
7 7 -2 11.4 4.6
-7 -7 1 106.49 15.4
-7 -7 1 126.79 11.5
-7 -7 1 111.19 17
7 7 -1 146.79 16.6
7 7 -1 136.39 20.1
7 7 -1 168.08 19.3
7 7 -1 111.29 12.9
7 7 -1 121.79 10.1
-7 -7 0 199.68 20.4
-7 -7 0 172.98 23.6
-7 -7 0 203.58 16.5
7 7 0 212.58 19.5
7 7 0 188.68 15.2
7 7 0 199.68 21.5
7 7 0 216.08 21.2
7 7 0 204.28 17.2
-7 -7 -1 135.19 12
-7 -7 -1 146.19 20.5
-7 -7 -1 136.89 19
7 7 1 112.79 11
7 7 1 100.39 15.6
7 7 1 108.79 12.6
7 7 1 105.99 15.2
7 7 1 133.39 18
-7 -7 -2 21 12.3
-7 -7 -2 17.1 4.9
7 7 2 19.6 7
7 7 2 11.1 4.2
7 7 2 10.4 4.4
7 7 2 15.4 7.7
7 7 2 13 4.3
-7 -7 -3 6.5 3.8
7 7 3 8.4 3.7
7 7 3 7.4 5.1
7 7 3 1.9 5
7 7 3 5.2 3.9
7 7 3 12.3 4.5
-7 -7 -4 12.5 4.7
7 7 4 13.3 6.3
7 7 4 6 3.3
7 7 4 3.8 5.3
7 7 4 9.3 4.6
7 7 4 5.3 3.8
-7 -7 -5 10.5 4.8
7 7 5 3.6 3.1
7 7 5 13.1 6.7
7 7 5 5.3 4.2
7 7 5 7 5.1
-7 -7 -6 27.2 6.6
7 7 6 22.6 6.9
7 7 6 20.6 6.6
7 7 6 15.3 5.4
7 7 7 2.5 5
7 7 8 85.99 14.6
7 7 9 8.3 7
7 7 10 36.3 11.3
7 7 11 18.8 9.1
-7 -6 11 10.9 7
-7 -6 10 0.2 5
-7 -6 9 107.09 17.7
-7 -6 8 33.1 9.8
-7 -6 7 425.16 34.7
-7 -6 6 167.68 19.1
7 6 -6 161.28 18
-7 -6 5 366.86 28.1
-7 -6 5 337.77 30.6
7 6 -5 395.26 28.8
7 6 -5 325.27 25.9
-7 -6 4 186.28 18.5
-7 -6 4 172.58 16.4
7 6 -4 162.08 16.4
7 6 -4 172.48 14.8
-7 -6 3 534.45 39.6
-7 -6 3 565.24 35.9
-7 -6 3 537.45 40
7 6 -3 530.15 41.1
7 6 -3 614.04 40.2
7 6 -3 550.34 37.4
7 6 -3 478.35 34
-7 -6 2 196.78 19.5
-7 -6 2 207.98 18.7
-7 -6 2 210.98 16
7 6 -2 208.38 20.6
7 6 -2 210.88 17
7 6 -2 211.98 19
7 6 -2 210.58 21.2
7 6 -2 197.48 14.2
-7 -6 1 16.9 5.8
-7 -6 1 23.1 4.7
-7 -6 1 35.4 9.2
7 6 -1 28.6 8.2
7 6 -1 29.6 4.1
7 6 -1 28 5.9
7 6 -1 26.9 7.8
7 6 -1 22 6.8
-7 -6 0 241.38 18.6
-7 -6 0 229.58 22.2
7 6 0 246.08 22.7
7 6 0 241.38 21.1
7 6 0 254.77 19.4
7 6 0 235.88 17.6
-7 -6 -1 20.1 7
-7 -6 -1 20.3 6.5
-7 -6 -1 26.2 5.1
7 6 1 27 5.4
7 6 1 26.3 7.2
7 6 1 25.6 4.9
7 6 1 26.9 7.7
7 6 1 30.6 9.5
-7 -6 -2 197.18 16.6
-7 -6 -2 218.58 21.2
-7 -6 -2 206.78 21
7 6 2 182.08 18.6
7 6 2 188.08 19.5
7 6 2 216.98 16.9
7 6 2 263.77 22.9
7 6 2 177.38 16.3
-7 -6 -3 558.44 43
-7 -6 -3 568.94 37.8
-7 -6 -3 513.55 41.9
7 6 3 546.85 37.5
7 6 3 518.45 38.1
7 6 3 570.54 41.1
7 6 3 541.65 40.8
7 6 3 507.75 41.8
-7 -6 -4 198.88 16
7 6 4 199.18 21.6
7 6 4 207.68 17.3
7 6 4 167.28 18.6
7 6 4 163.08 17.2
7 6 4 181.38 14.9
-7 -6 -5 391.06 28.4
7 6 5 387.96 30.5
7 6 5 356.56 30.7
7 6 5 412.96 26.9
7 6 5 378.16 30
7 6 5 347.37 29.3
-7 -6 -6 161.58 14.5
7 6 6 142.79 14.5
7 6 6 140.29 17.4
7 6 6 151.78 14.3
7 6 7 461.05 36.7
7 6 8 45.6 10.8
7 6 9 139.29 19.8
7 6 10 5.4 6.1
7 6 11 39 11.8
-7 -5 11 8.9 5.8
-7 -5 10 -0.2 4.3
-7 -5 9 -3.1 4.8
-7 -5 8 162.38 20.9
-7 -5 7 18.5 6.9
-7 -5 6 56.29 9.9
7 5 -6 37.4 7.7
-7 -5 5 95.29 12.4
7 5 -5 102.99 13.2
7 5 -5 110.79 10
-7 -5 4 7.5 5.3
7 5 -4 3.9 3.6
7 5 -4 13.3 3.8
-7 -5 3 15.3 5.8
-7 -5 3 15.7 4.9
-7 -5 3 22.1 3.7
7 5 -3 14.4 4.1
7 5 -3 13.9 4.6
7 5 -3 21.5 5.9
-7 -5 2 130.79 13.7
-7 -5 2 132.69 10.4
-7 -5 2 134.59 13.8
-7 -5 2 120.09 14.1
7 5 -2 116.49 9
7 5 -2 117.59 14.6
7 5 -2 116.59 10.9
7 5 -2 111.09 13.9
7 5 -2 109.69 13.7
-7 -5 1 49.5 6.4
-7 -5 1 49.1 9.7
-7 -5 1 59.69 10.7
7 5 -1 51.39 9.2
7 5 -1 38.4 9.1
7 5 -1 42.5 6.6
7 5 -1 46 5.1
7 5 -1 45.9 8.1
-7 -5 0 370.56 25.4
-7 -5 0 332.57 28.7
7 5 0 348.77 24.2
7 5 0 346.17 25.6
7 5 0 407.06 29.8
7 5 0 337.07 29.3
7 5 0 340.17 27.7
-7 -5 -1 37.3 6.2
-7 -5 -1 49.1 10.4
-7 -5 -1 43.4 9.7
7 5 1 49.3 9.4
7 5 1 42.1 6.5
7 5 1 35.6 7.6
7 5 1 52.19 11.3
7 5 1 48.5 6.2
-7 -5 -2 143.09 17.8
-7 -5 -2 116.69 11.3
-7 -5 -2 125.59 15
7 5 2 124.69 14
7 5 2 144.19 16.3
7 5 2 132.09 15.2
7 5 2 112.19 11.1
7 5 2 124.49 11.4
-7 -5 -3 23.6 5.2
-7 -5 -3 20.6 8.1
-7 -5 -3 14.5 6
7 5 3 16.5 4.7
7 5 3 21.1 4.4
7 5 3 15.9 5.8
7 5 3 9.2 5.7
7 5 3 14.2 5.6
-7 -5 -4 10.2 3.9
-7 -5 -4 3.8 4.5
7 5 4 6.3 4.2
7 5 4 9.1 4.4
7 5 4 7.1 2.8
7 5 4 6.5 4.9
7 5 4 8.3 4
-7 -5 -5 122.89 12.1
7 5 5 100.59 11.5
7 5 5 112.99 14.2
7 5 5 108.69 9.2
7 5 5 100.39 12
7 5 5 104.59 14.4
-7 -5 -6 44.5 7.5
7 5 6 43.2 6.8
7 5 6 56.99 9.9
7 5 6 51.49 7.3
7 5 7 32.5 9
7 5 8 110.39 16.6
7 5 9 6.8 6.7
7 5 10 -3.5 5.3
7 5 11 4.8 6.8
-7 -4 12 2.4 6
-7 -4 11 37.6 9.9
-7 -4 10 17.9 7
-7 -4 9 355.36 29.6
-7 -4 8 49.1 11
-7 -4 8 53.49 10.2
-7 -4 7 195.78 19
-7 -4 7 179.38 19.4
-7 -4 6 63.19 10.6
-7 -4 6 65.59 10
7 4 -6 63.19 9.8
-7 -4 5 9.4 4.2
-7 -4 5 14.8 5.1
7 4 -5 16 5.2
7 4 -5 12.6 3.4
-7 -4 4 111.89 12.8
-7 -4 4 116.49 15.8
7 4 -4 114.69 10.2
7 4 -4 134.29 14.5
-7 -4 3 5.5 3.4
-7 -4 3 6.7 4.7
-7 -4 3 11.6 2.4
7 4 -3 13.6 3.4
7 4 -3 18.6 5.5
7 4 -3 14.1 5.7
-7 -4 2 207.58 15.1
-7 -4 2 195.08 16.1
-7 -4 2 202.38 17.9
-7 -4 2 188.28 17.8
-7 -4 2 245.88 19
7 4 -2 213.78 19.2
7 4 -2 190.18 18.4
7 4 -2 211.88 17.8
7 4 -2 181.68 15.4
-7 -4 1 458.85 31.5
-7 -4 1 446.56 34.5
-7 -4 1 570.94 36
-7 -4 1 424.16 33.3
7 4 -1 536.35 35.9
7 4 -1 434.66 30.4
7 4 -1 427.26 33.8
7 4 -1 456.85 31.9
7 4 -1 450.15 35.3
-7 -4 0 417.36 28.7
-7 -4 0 407.16 32.1
7 4 0 396.96 27.8
7 4 0 411.46 28.9
7 4 0 395.86 30.8
7 4 0 511.95 33.2
7 4 0 386.66 32.4
-7 -4 -1 460.75 32.2
-7 -4 -1 461.95 35.7
-7 -4 -1 529.85 36.4
7 4 1 608.64 41.1
7 4 1 396.36 33.8
7 4 1 427.86 31.6
7 4 1 460.85 32.4
-7 -4 -2 195.58 18.9
-7 -4 -2 224.58 16.4
-7 -4 -2 194.78 19.2
7 4 2 206.28 17.8
7 4 2 223.18 18.9
7 4 2 201.18 15.9
7 4 2 192.28 15.9
7 4 2 200.18 19.5
-7 -4 -3 10.8 5.1
-7 -4 -3 11.7 4.3
-7 -4 -3 9.6 3.5
7 4 3 17.4 5.3
7 4 3 17.1 4.5
7 4 3 9.2 4.5
7 4 3 7.6 5.7
7 4 3 7.7 2.7
-7 -4 -4 113.59 14.2
-7 -4 -4 117.19 11
7 4 4 114.39 12.2
7 4 4 129.59 10.2
7 4 4 121.69 13.4
7 4 4 133.99 15
7 4 4 93.79 11.9
-7 -4 -5 13.1 4.1
7 4 5 14.1 5.3
7 4 5 9.1 3.5
7 4 5 18.5 5.9
7 4 5 17.2 3
7 4 5 9.1 4.1
-7 -4 -6 68.59 8.7
7 4 6 58.29 10.3
7 4 7 182.18 20.6
7 4 8 41.8 10.1
7 4 9 376.86 32.6
7 4 10 24.3 8.6
7 4 11 68.59 14.6
-7 -3 12 1.2 5.2
-7 -3 11 10.8 6.5
-7 -3 11 12.3 6.3
-7 -3 10 53.49 10.5
-7 -3 10 41 9.6
-7 -3 9 12.1 5.7
-7 -3 9 2.9 5.1
-7 -3 8 47.5 9.9
-7 -3 8 34 8.2
-7 -3 8 54.99 8.2
-7 -3 7 82.99 12.1
-7 -3 7 110.59 10.9
-7 -3 7 90.29 13.2
-7 -3 6 40.4 8.2
-7 -3 6 46.5 6.4
-7 -3 6 56.19 9
7 3 -6 46.6 8.4
-7 -3 5 304.57 23.9
-7 -3 5 293.17 23.6
7 3 -5 319.87 24.5
-7 -3 4 18.9 5.1
7 3 -4 28.4 6.5
-7 -3 3 420.46 29.8
-7 -3 3 417.56 27.1
-7 -3 3 462.95 32.8
7 3 -3 377.46 30.7
7 3 -3 430.46 30.9
-7 -3 2 301.07 24.5
-7 -3 2 319.37 25.2
-7 -3 2 313.87 23.1
-7 -3 2 320.57 24.4
-7 -3 2 304.47 21.7
7 3 -2 341.47 25.8
7 3 -2 314.97 22.3
7 3 -2 329.37 25.3
7 3 -2 350.56 25.1
-7 -3 1 678.73 45.3
-7 -3 1 614.74 44.8
-7 -3 1 702.83 42.7
-7 -3 1 567.44 41.7
-7 -3 1 558.44 43.6
7 3 -1 637.44 42.3
7 3 -1 786.32 46.3
7 3 -1 612.04 44.1
7 3 -1 625.14 45.5
-7 -3 0 29.8 4.5
-7 -3 0 40.3 8.3
-7 -3 0 28.9 7.6
-7 -3 0 36.2 5.3
7 3 0 27.9 6.2
7 3 0 30 8.1
7 3 0 39.7 5.5
7 3 0 58.69 11.3
-7 -3 -1 519.65 40.3
-7 -3 -1 646.34 38.3
-7 -3 -1 605.84 41.3
7 3 1 579.64 39.8
7 3 1 536.75 41.1
7 3 1 555.34 37.4
7 3 1 554.74 40.5
7 3 1 550.04 37.7
-7 -3 -2 344.37 23.3
-7 -3 -2 346.57 26.8
-7 -3 -2 313.37 25.8
7 3 2 323.27 23.1
7 3 2 290.47 24.5
7 3 2 336.07 23
7 3 2 304.07 25.1
7 3 2 331.77 26.6
-7 -3 -3 436.76 32.7
-7 -3 -3 417.86 31.8
-7 -3 -3 386.86 28.5
7 3 3 422.26 28.3
7 3 3 410.96 30.4
7 3 3 415.16 29.3
7 3 3 419.26 31.4
7 3 3 400.76 30.6
-7 -3 -4 46.8 10.3
-7 -3 -4 27.7 5.1
7 3 4 31.5 6.6
7 3 4 29.3 4.2
7 3 4 31.1 6.3
7 3 4 21.2 5.2
7 3 4 25.6 5.9
-7 -3 -5 265.67 20.8
7 3 5 272.07 22.8
7 3 5 270.57 20.9
7 3 5 303.47 21.6
7 3 5 301.17 18.9
7 3 5 283.37 23
-7 -3 -6 46 6.9
7 3 6 59.49 9.6
7 3 6 58.99 9.9
7 3 7 132.69 16.4
7 3 8 62.99 11.3
7 3 9 15 6.5
7 3 10 55.79 11.6
7 3 11 14.7 8.4
7 3 12 23.4 10.4
-7 -2 12 8.2 6.8
-7 -2 11 5.5 6.6
-7 -2 11 11.5 6.8
-7 -2 10 60.69 11.6
-7 -2 10 25.4 8.2
-7 -2 9 40.4 8
-7 -2 9 53.29 10.6
-7 -2 9 43.2 9.3
-7 -2 8 7.9 4.2
-7 -2 8 -0.4 3.6
-7 -2 8 7.8 5
-7 -2 7 138.59 16.3
-7 -2 7 150.18 13.3
-7 -2 7 140.59 16
7 2 -7 158.38 17.2
-7 -2 6 36.5 5.9
-7 -2 6 33 6.9
-7 -2 6 38.5 7.3
7 2 -6 44.2 8.5
-7 -2 5 68.89 9.1
-7 -2 5 73.39 7.5
-7 -2 5 41.9 7.7
7 2 -5 47.1 8.6
-7 -2 4 61.99 9
7 2 -4 80.69 11
-7 -2 3 89.39 8.5
-7 -2 3 96.19 10.7
-7 -2 3 91.29 6.6
7 2 -3 66.89 10
7 2 -3 91.79 10.3
-7 -2 2 67.09 8.1
-7 -2 2 66.59 9.7
-7 -2 2 70.39 8.3
-7 -2 2 65.29 6
7 2 -2 69.29 9.4
7 2 -2 69.19 10.3
7 2 -2 61.59 9.4
-7 -2 1 701.53 48.2
-7 -2 1 626.74 47.3
-7 -2 1 663.63 45.3
7 2 -1 728.53 49.1
7 2 -1 776.62 48.6
7 2 -1 707.33 48
-7 -2 0 2277.67 164.98
-7 -2 0 3017.5 161.78
-7 -2 0 2293.87 159.78
-7 -2 0 2450.95 162.68
-7 -2 0 2195.78 159.28
7 2 0 2527.25 163.28
7 2 0 2922.41 160.28
7 2 0 2850.81 162.48
-7 -2 -1 629.84 44.8
-7 -2 -1 658.13 41.8
-7 -2 -1 582.34 43.8
-7 -2 -1 614.34 40.6
7 2 1 588.44 43
7 2 1 648.64 44.7
7 2 1 680.73 44.6
7 2 1 614.94 41.4
7 2 1 673.63 41.5
-7 -2 -2 71.99 11.4
-7 -2 -2 67.49 7.3
-7 -2 -2 63.19 10
7 2 2 60.29 8.5
7 2 2 66.49 6.9
7 2 2 47 8.1
7 2 2 49.6 7.8
7 2 2 62.79 7.2
-7 -2 -3 55.99 8.7
-7 -2 -3 94.49 11.9
-7 -2 -3 92.49 8
7 2 3 70.29 8.9
7 2 3 83.29 9.2
7 2 3 84.39 7.3
7 2 3 86.49 10
7 2 3 75.69 9.6
-7 -2 -4 47.5 9
-7 -2 -4 64.49 7.3
7 2 4 56.59 8.2
7 2 4 63.19 7.5
7 2 4 62.99 8.4
7 2 4 80.19 9.7
7 2 4 62.59 5.7
-7 -2 -5 55.09 7
7 2 5 62.59 6.8
7 2 5 57.49 6.3
7 2 5 60.09 8.8
7 2 5 58.29 8.6
-7 -2 -6 38.6 5.7
7 2 6 26.5 6.5
7 2 6 37.4 7.2
7 2 7 138.29 16.4
7 2 8 2.6 4.9
7 2 9 48.1 10.6
7 2 10 61.39 12.5
7 2 11 16.8 7.7
7 2 12 -3.5 6.2
-7 -1 12 36.8 10.2
-7 -1 11 16.9 7.7
-7 -1 11 14.4 10.4
-7 -1 10 59.29 10
-7 -1 10 72.49 11.9
-7 -1 10 57.19 12.1
-7 -1 9 57.09 10.5
-7 -1 9 47.4 8.6
-7 -1 9 53.09 10.6
-7 -1 8 136.69 17.3
-7 -1 8 147.09 17.2
-7 -1 8 152.68 14.2
-7 -1 7 34.8 7.4
-7 -1 7 31.2 6.2
-7 -1 7 30.5 7.6
7 1 -7 41.8 8.8
-7 -1 6 10.6 4.2
-7 -1 6 7.6 3.4
-7 -1 6 5.6 4.1
7 1 -6 12.3 5.2
-7 -1 5 96.99 8.9
-7 -1 5 81.99 10.2
-7 -1 5 105.49 12
7 1 -5 84.59 11.9
-7 -1 4 244.98 18.6
-7 -1 4 256.47 19.9
7 1 -4 255.17 21
-7 -1 3 383.86 29.2
-7 -1 3 442.26 28.1
-7 -1 3 406.06 26.1
7 1 -3 407.26 30.8
-7 -1 2 89.39 6.9
-7 -1 2 93.79 9.2
-7 -1 2 75.79 8.8
7 1 -2 73.09 10.4
7 1 -2 70.89 10.4
-7 -1 1 1226.48 84.59
-7 -1 1 1163.98 86.79
-7 -1 1 1446.26 85.59
7 1 -1 1399.56 87.49
7 1 -1 1477.15 88.09
7 1 -1 1374.96 88.09
-7 -1 0 239.18 16.1
-7 -1 0 153.58 13.8
-7 -1 0 176.08 17.3
-7 -1 0 184.68 14.3
7 1 0 270.67 24.1
7 1 0 216.18 16.5
-7 -1 -1 933.41 60.69
-7 -1 -1 947.61 60.29
-7 -1 -1 953 59.49
-7 -1 -1 904.71 62.89
7 1 1 946.41 60.09
7 1 1 886.61 62.29
7 1 1 967.9 63.19
7 1 1 973.2 62.19
-7 -1 -2 54.29 6.5
-7 -1 -2 56.59 4.7
-7 -1 -2 55.29 8.5
-7 -1 -2 37.5 6.1
7 1 2 67.89 6.7
7 1 2 64.59 8
7 1 2 49.99 7.8
7 1 2 68.09 6.9
7 1 2 81.09 10.3
-7 -1 -3 406.36 26.7
-7 -1 -3 389.66 29.3
-7 -1 -3 365.06 28.9
7 1 3 379.26 27.9
7 1 3 399.26 27.4
7 1 3 395.86 26.2
7 1 3 388.16 28.5
7 1 3 396.56 28.6
-7 -1 -4 245.48 21.2
-7 -1 -4 226.38 17.8
7 1 4 254.87 19.5
7 1 4 255.37 19.2
7 1 4 247.68 19.3
7 1 4 248.08 17
7 1 4 259.37 19.2
-7 -1 -5 89.59 8.6
7 1 5 97.99 10.7
7 1 5 100.29 11.8
-7 -1 -6 5.6 2.7
7 1 6 9.2 4.5
7 1 6 4.7 3.4
7 1 7 36 8.1
7 1 8 141.29 17.6
7 1 9 62.99 11.9
7 1 10 102.39 16.4
7 1 11 15.4 7.7
7 1 12 37.2 11.7
-7 0 12 25.8 8.3
-7 0 11 3.3 6.7
-7 0 11 2.5 4.6
-7 0 10 4.9 5.5
-7 0 10 0.9 5.9
-7 0 10 2.1 4.3
-7 0 9 1.4 4.2
-7 0 9 1.1 3.4
-7 0 9 -4.5 4
-7 0 8 -4.5 3
-7 0 8 -1.2 3
-7 0 8 -2 3.6
-7 0 7 -1.4 2.9
-7 0 7 -1 4
-7 0 7 2 2.9
7 0 -7 3.6 4.3
-7 0 6 -1.9 2
-7 0 6 -2.2 2.6
-7 0 6 -1.7 2.6
7 0 -6 -2.1 3.4
-7 0 5 5.4 3.7
-7 0 5 3 2.6
-7 0 5 1.2 2.4
7 0 -5 -1.4 3.1
-7 0 4 2.1 2.4
-7 0 4 0.1 1.8
-7 0 4 5.8 3.3
7 0 -4 1.5 3.8
-7 0 3 -0.4 1.9
-7 0 3 -3.5 1.9
-7 0 3 -0.3 0.6
-7 0 3 1.1 0.7
7 0 -3 -1.4 2.7
-7 0 2 2 2.5
-7 0 2 0.8 2.4
-7 0 2 0 1.5
7 0 -2 2.9 3.7
7 0 -2 0 2.9
-7 0 1 -0.4 1.9
-7 0 1 -0.9 3.2
7 0 -1 1.1 3.5
7 0 -1 6 4.4
-7 0 0 -2.3 1.9
-7 0 0 7.3 4.7
-7 0 0 0.9 2.8
7 0 0 4.8 5
7 0 0 -0.9 2.7
-7 0 -1 -0.3 2.1
-7 0 -1 -4.4 3.4
-7 0 -1 -0.8 1.8
7 0 1 2.7 2.9
7 0 1 -0.9 2.9
7 0 1 -2.2 2.3
-7 0 -2 1 2.1
-7 0 -2 2.5 3.2
-7 0 -2 1.3 1.8
7 0 2 -0.5 1.5
7 0 2 -3.4 1.8
7 0 2 -0.7 2.2
7 0 2 1.6 1.8
7 0 2 -0.2 2.1
-7 0 -3 -1.6 1.6
-7 0 -3 -0.4 2.6
-7 0 -3 3.4 3.6
7 0 3 -0.3 1.5
7 0 3 -0.4 2.1
7 0 3 2.8 2.1
7 0 3 -0.1 2.2
7 0 3 -0.3 2.3
-7 0 -4 0.9 3.4
-7 0 -4 -2.5 1.5
7 0 4 0 2
7 0 4 0.6 1.2
7 0 4 -2.9 1.5
7 0 4 0.3 2.2
7 0 4 0.2 2.2
-7 0 -5 1.6 2.3
7 0 5 1.4 2.1
7 0 5 0.3 2.2
-7 0 -6 0.9 2
7 0 6 3.3 3.3
7 0 6 1 2.9
7 0 6 2.6 2.6
7 0 7 2 3.5
7 0 7 2.8 3.9
7 0 8 -4.6 3.5
7 0 8 1.6 4.6
7 0 9 11 5.9
7 0 9 5.5 5.6
7 0 10 25.6 8.8
7 0 10 31 10.1
7 0 11 2.7 6.7
7 0 12 9.9 7.5
-7 1 12 38 9.8
-7 1 11 11.2 6.3
-7 1 10 68.29 12.4
-7 1 10 81.99 13.3
-7 1 10 84.79 12.9
-7 1 9 48.9 9.2
-7 1 9 45.9 9.4
-7 1 9 54.69 10.3
-7 1 8 124.89 15.1
-7 1 8 142.49 15.6
-7 1 8 141.59 16.6
7 -1 -8 125.39 16.7
-7 1 7 48.9 8
-7 1 7 28.4 7.4
-7 1 7 33.5 7
7 -1 -7 36.2 8.8
-7 1 6 8.3 3.5
-7 1 6 4.7 3.8
-7 1 6 15.2 4.4
7 -1 -6 4.5 4.7
-7 1 5 87.29 9.5
-7 1 5 92.69 10.2
-7 1 5 89.79 10.8
7 -1 -5 76.89 11.9
-7 1 4 234.18 17.5
-7 1 4 239.28 18.1
7 -1 -4 253.87 21.2
-7 1 3 416.76 28.8
-7 1 3 464.15 28.1
-7 1 3 396.96 26.8
7 -1 -3 446.46 32.5
-7 1 2 79.19 10.2
-7 1 2 66.59 6.5
7 -1 -2 85.29 11.5
7 -1 -2 89.59 11.3
-7 1 1 1135.99 73.19
-7 1 1 1154.58 75.49
7 -1 -1 1167.98 75.69
-7 1 0 244.28 19.5
-7 1 0 253.67 17.1
7 -1 0 236.78 19.4
7 -1 0 201.98 18.6
-7 1 -1 910.01 61.39
-7 1 -1 942.61 58.89
7 -1 1 867.61 60.79
7 -1 1 953.5 60.79
-7 1 -2 61.19 9.4
-7 1 -2 67.49 7.1
7 -1 2 83.79 9.4
7 -1 2 59.39 8.4
7 -1 2 81.39 10.4
-7 1 -3 408.96 27
-7 1 -3 381.26 29.3
7 -1 3 386.36 28.6
7 -1 3 405.26 28.8
7 -1 3 383.96 26.3
7 -1 3 397.56 27.2
7 -1 3 399.66 27.6
-7 1 -4 213.78 17.5
-7 1 -4 246.28 20.4
7 -1 4 256.87 18.1
7 -1 4 254.47 16.6
7 -1 4 249.08 18.9
7 -1 4 225.68 18.6
7 -1 4 251.27 18.7
7 -1 4 264.27 19.4
-7 1 -5 84.09 8.7
7 -1 5 81.59 7.8
7 -1 5 100.29 10.8
7 -1 5 77.99 10.4
-7 1 -6 5.8 2.7
7 -1 6 5.4 3.6
7 -1 6 10.9 4.9
7 -1 7 37.7 7.4
7 -1 7 21.9 6.6
7 -1 8 123.19 16.5
7 -1 8 121.69 15.6
7 -1 9 65.49 11.6
7 -1 9 41.8 10.4
7 -1 10 64.99 12.4
7 -1 10 65.79 12.9
7 -1 11 13.5 8.2
7 -1 11 11.4 7
7 -1 12 45.4 11.8
7 -1 12 24.3 10.4
-7 2 12 5.9 5.9
-7 2 11 15.2 6.8
-7 2 10 29 8.6
-7 2 10 47.7 10
-7 2 9 41.9 8.9
-7 2 9 47.6 11.3
-7 2 9 72.79 12
-7 2 8 6.2 4.6
-7 2 8 1 4.1
-7 2 8 1.1 4.1
7 -2 -8 10 6.6
-7 2 7 147.89 14.2
-7 2 7 140.39 16
-7 2 7 126.19 14.4
7 -2 -7 167.58 19.3
-7 2 6 26.7 5.8
-7 2 6 36.6 7.2
-7 2 6 27.9 5.6
7 -2 -6 19.6 6.5
-7 2 5 54.39 7
-7 2 5 58.59 7.9
7 -2 -5 74.69 12
-7 2 4 69.79 6.6
-7 2 4 67.39 8.1
7 -2 -4 52.09 9.8
-7 2 3 96.29 8.6
-7 2 3 88.49 7.1
-7 2 3 82.59 6.7
-7 2 3 91.29 9.4
7 -2 -3 73.69 11.5
-7 2 2 60.09 8.2
-7 2 2 61.49 6.3
7 -2 -2 60.89 9.4
7 -2 -2 59.19 9.4
-7 2 1 805.12 54.69
7 -2 -1 823.92 54.99
-7 2 0 2861.01 175.48
-7 2 0 2702.23 172.78
7 -2 0 2438.76 175.08
7 -2 0 3034.9 175.88
-7 2 -1 608.74 40.4
7 -2 1 690.83 42.8
7 -2 1 563.04 42.5
-7 2 -2 55.49 6.6
-7 2 -2 46.9 8
7 -2 2 73.89 8.8
7 -2 2 66.69 9.5
7 -2 2 56.39 6.7
-7 2 -3 105.19 13.1
-7 2 -3 89.49 8.4
7 -2 3 83.89 8.2
7 -2 3 86.59 10
7 -2 3 94.99 9.1
7 -2 3 90.29 9.9
7 -2 3 90.69 10.4
-7 2 -4 49.4 6.5
-7 2 -4 66.89 10.1
7 -2 4 55.19 8.2
7 -2 4 56.59 7.3
7 -2 4 64.89 7.4
7 -2 4 56.29 5.4
7 -2 4 60.29 7.3
7 -2 4 69.79 9.2
-7 2 -5 51.79 6.5
7 -2 5 40.2 6.7
7 -2 5 51.99 6.1
7 -2 5 58.99 6.1
7 -2 5 52.29 6
7 -2 5 55.39 8.8
-7 2 -6 35.1 5.6
7 -2 6 30.2 7.4
7 -2 6 50.39 8
7 -2 7 160.38 17.3
7 -2 7 158.28 18.4
7 -2 8 6.5 5.2
7 -2 8 12.1 5.4
7 -2 9 53.59 11.2
7 -2 9 62.89 11.3
7 -2 10 80.39 14.8
7 -2 10 70.19 12.7
7 -2 11 12.5 7.6
7 -2 11 5.2 7.4
7 -2 12 8.8 7.3
-7 3 12 25.7 9
-7 3 11 0.8 4.7
-7 3 10 57.89 11.3
-7 3 10 51.49 10.7
-7 3 9 2.3 5.2
-7 3 9 20.2 6.7
-7 3 8 51.79 9.6
-7 3 8 63.39 10.1
7 -3 -8 46.2 10.9
-7 3 7 90.09 10.9
-7 3 7 97.29 12.5
7 -3 -7 111.19 15.6
-7 3 6 49.2 6.8
-7 3 6 37 6.8
7 -3 -6 43.4 10.3
-7 3 5 313.37 21.2
-7 3 5 287.67 22.6
7 -3 -5 276.97 25.6
-7 3 4 45.4 4.8
-7 3 4 27.8 5.3
7 -3 -4 21.7 7.7
-7 3 3 444.16 31
-7 3 3 438.06 28.5
-7 3 3 421.56 30.1
-7 3 3 425.26 27.8
7 -3 -3 447.96 34
-7 3 2 336.47 22.4
-7 3 2 315.47 24.6
7 -3 -2 297.57 24.9
7 -3 -2 359.66 26.9
-7 3 1 734.93 47.7
-7 3 1 591.84 44.4
7 -3 -1 715.53 47.8
7 -3 -1 689.23 48.2
-7 3 0 62.69 11.5
-7 3 0 38.4 5.5
7 -3 0 33.1 6.9
7 -3 0 39.6 7.8
-7 3 -1 633.34 43.6
-7 3 -1 664.33 40.7
7 -3 1 600.64 42.8
7 -3 1 558.24 39.4
7 -3 1 592.94 42.4
-7 3 -2 320.27 26.6
-7 3 -2 332.57 23.7
7 -3 2 315.97 23.5
7 -3 2 348.57 26.2
7 -3 2 356.86 25.3
-7 3 -3 394.16 31.5
-7 3 -3 430.66 28.7
7 -3 3 427.86 28.2
7 -3 3 406.26 30.6
7 -3 3 373.16 28.9
7 -3 3 435.66 29.4
-7 3 -4 13.4 5.6
-7 3 -4 24.7 4.6
7 -3 4 25.8 5.9
7 -3 4 27.2 5.9
7 -3 4 19.1 5.5
7 -3 4 31.3 5.1
7 -3 4 25.1 4.4
-7 3 -5 288.87 21.3
7 -3 5 277.37 21.3
7 -3 5 318.07 22.1
7 -3 5 295.27 23.5
7 -3 5 311.77 23.1
7 -3 5 290.37 21.5
7 -3 5 276.97 18.7
-7 3 -6 55.09 7.4
7 -3 6 50.69 8.1
7 -3 6 52.49 9.3
7 -3 7 104.09 12.8
7 -3 7 91.49 13.6
7 -3 8 62.09 10.2
7 -3 8 49.4 10.7
7 -3 9 8.4 5.9
7 -3 9 8.9 5.8
7 -3 10 61.69 12.3
7 -3 10 62.29 11.9
7 -3 11 21.4 9
7 -3 12 7.5 7.1
-7 4 11 40.8 10.1
-7 4 10 14.1 6.8
-7 4 10 40.7 9.7
-7 4 9 374.36 30.6
-7 4 9 382.46 30.5
7 -4 -9 335.27 32.3
-7 4 8 59.59 10.7
7 -4 -8 48 12.2
-7 4 7 206.48 18.6
7 -4 -7 196.98 24.1
-7 4 6 51.59 8.5
7 -4 -6 64.09 12.4
-7 4 5 13.2 4.4
-7 4 5 19.6 3.4
7 -4 -5 17.6 7.6
-7 4 4 123.99 12
-7 4 4 139.19 12.1
-7 4 4 133.39 11.4
-7 4 4 119.99 8.9
7 -4 -4 130.29 17.3
-7 4 3 22.7 5.8
-7 4 3 16.4 3.2
-7 4 3 8.7 3.4
7 -4 -3 9.8 5.5
-7 4 2 215.38 15.6
-7 4 2 207.08 18.3
7 -4 -2 201.78 19.5
7 -4 -2 193.38 18.6
-7 4 1 436.16 33.9
-7 4 1 519.95 37.2
7 -4 -1 463.85 37.7
7 -4 -1 597.74 38.9
-7 4 0 497.55 34.2
-7 4 0 415.96 30.1
7 -4 0 391.86 28.3
7 -4 0 394.96 32.7
7 -4 0 504.95 33.8
-7 4 -1 455.85 34.3
-7 4 -1 443.06 30.8
7 -4 1 441.86 33
7 -4 1 437.66 33.3
7 -4 1 441.26 29.7
-7 4 -2 202.08 15.9
-7 4 -2 172.28 18.3
7 -4 2 220.88 18.9
7 -4 2 203.78 17.3
7 -4 2 220.38 16
-7 4 -3 9.1 4.7
-7 4 -3 8.7 3.2
7 -4 3 18.2 5.7
7 -4 3 9.3 3.5
7 -4 3 19.6 5.1
-7 4 -4 110.59 15.5
-7 4 -4 111.49 10.8
7 -4 4 105.69 12.6
7 -4 4 122.29 12.5
7 -4 4 119.69 10.2
7 -4 4 126.29 11
-7 4 -5 11.6 3.8
7 -4 5 17.5 4.2
7 -4 5 18.8 4.9
7 -4 5 24 6.1
7 -4 5 21.5 5.1
7 -4 5 14.3 2.7
-7 4 -6 71.59 9.1
7 -4 6 61.99 8.9
7 -4 6 83.29 12
7 -4 7 175.78 20.6
7 -4 7 211.08 17.8
7 -4 8 45.6 11
7 -4 8 56.59 9.7
7 -4 9 353.46 28.6
7 -4 9 329.17 30.6
7 -4 10 29.7 9.4
7 -4 11 57.99 13.4
7 -4 12 9.2 7.8
-7 5 11 15.6 8.2
-7 5 10 2.1 5.6
-7 5 9 8.9 5.4
7 -5 -9 -0.5 6.9
-7 5 8 67.29 12
7 -5 -8 106.79 18.3
-7 5 7 24.8 6.6
7 -5 -7 15.8 8.5
-7 5 6 38.5 7.6
7 -5 -6 48.2 11.4
-7 5 5 98.99 11.9
7 -5 -5 77.29 14.4
-7 5 4 7.8 3.7
-7 5 4 7.6 2.3
-7 5 4 6.3 3.9
-7 5 4 11.9 3.8
7 -5 -4 5 5.8
-7 5 3 15.5 4.5
-7 5 3 20.9 4
-7 5 3 15.8 5.6
7 -5 -3 11.7 6.2
-7 5 2 104.99 10.6
-7 5 2 120.49 13.7
7 -5 -2 146.29 15.1
7 -5 -2 132.09 16.7
-7 5 1 54.59 10.1
-7 5 1 46.9 7
7 -5 -1 66.99 11.4
7 -5 -1 46.4 9.7
-7 5 0 464.05 32.7
-7 5 0 354.56 27.5
7 -5 0 347.47 30.3
7 -5 0 367.96 25.6
7 -5 0 417.66 31.1
-7 5 -1 33 6.1
7 -5 1 77.29 13.2
7 -5 1 45.6 8.9
7 -5 1 47.1 5.8
-7 5 -2 123.59 14.7
-7 5 -2 119.99 11.5
7 -5 2 129.29 14.6
7 -5 2 153.38 14.1
7 -5 2 116.89 11.1
-7 5 -3 9.3 3.7
-7 5 -3 13.7 6.1
7 -5 3 19.7 4.8
7 -5 3 15.4 5.6
7 -5 3 18.4 5.5
-7 5 -4 8 3.5
-7 5 -4 8 5.6
7 -5 4 8.8 4.1
7 -5 4 9.5 4.1
7 -5 4 7 2.7
7 -5 4 13.4 5
-7 5 -5 115.39 12.3
7 -5 5 116.59 13.9
7 -5 5 118.89 12.5
7 -5 5 104.09 10.3
-7 5 -6 40.4 7.1
7 -5 6 49.99 7.5
7 -5 6 42.6 6.4
7 -5 6 44.1 8.7
7 -5 6 44.2 6.5
7 -5 7 32.5 7
7 -5 7 28.7 8.2
7 -5 8 84.59 14
7 -5 9 13.1 6.8
7 -5 10 2.7 6.5
7 -5 11 7.6 8.4
-7 6 11 30.4 10.1
-7 6 10 17.1 7.4
-7 6 9 105.59 15.8
7 -6 -9 168.68 24.3
-7 6 8 41.4 9.5
7 -6 -8 65.59 15.7
-7 6 7 438.16 34.6
7 -6 -7 472.35 40.5
-7 6 6 152.48 17.3
7 -6 -6 174.78 22.7
-7 6 5 399.26 28.4
-7 6 5 383.16 28.7
-7 6 5 392.26 29.8
7 -6 -5 411.46 35.2
-7 6 4 197.88 17.8
-7 6 4 193.08 17
-7 6 4 200.58 15
-7 6 4 202.08 18.5
7 -6 -4 200.38 24.7
-7 6 3 545.25 41.5
-7 6 3 587.54 39
-7 6 3 568.94 38.2
-7 6 3 542.75 41.2
-7 6 2 244.68 18.3
-7 6 2 203.98 21.2
7 -6 -2 244.08 22.3
-7 6 1 17.4 4.6
-7 6 1 28.2 8.6
7 -6 -1 24.5 3
7 -6 -1 32.8 7.8
-7 6 0 248.18 20
-7 6 0 248.48 23.5
7 -6 0 347.37 29.1
7 -6 0 240.28 23
7 -6 0 238.78 17.8
-7 6 -1 15.1 4.4
-7 6 -1 34.2 9.2
7 -6 1 28.9 4.8
7 -6 1 19.1 6.8
7 -6 1 20.1 7.3
-7 6 -2 225.68 17.7
-7 6 -2 206.18 20.8
7 -6 2 208.78 16.8
7 -6 2 220.78 19.7
7 -6 2 187.48 19.8
-7 6 -3 481.85 41
-7 6 -3 566.44 38
7 -6 3 499.95 40
7 -6 3 589.34 39.7
7 -6 3 566.54 38.2
-7 6 -4 218.58 16.9
7 -6 4 187.28 14.6
7 -6 4 187.08 17
7 -6 4 189.08 18.3
7 -6 4 171.28 16.3
-7 6 -5 400.96 28.3
7 -6 5 346.47 26.2
7 -6 5 389.06 29.9
7 -6 5 364.86 29.4
-7 6 -6 161.18 16
7 -6 6 155.58 13.6
7 -6 6 146.29 13.9
7 -6 6 165.38 18.7
7 -6 6 139.19 14.1
7 -6 7 420.76 34.3
7 -6 8 22.4 8.2
7 -6 9 100.99 16.6
7 -6 10 4.7 7.3
7 -6 11 18 9.4
-7 7 11 4.3 7
-7 7 10 16 7.1
7 -7 -10 10.5 10.5
-7 7 9 5.7 5.6
7 -7 -9 1.4 9
-7 7 8 91.29 13.8
7 -7 -8 89.39 19.2
-7 7 7 3.1 4.9
7 -7 -7 9.7 8.9
-7 7 6 14.4 5.4
7 -7 -6 16.3 9.3
-7 7 5 8.9 4.9
-7 7 5 8.4 4.3
-7 7 5 7.4 4
7 -7 -5 2.3 6.6
-7 7 4 5.4 4.5
-7 7 4 11.5 5.3
-7 7 4 7.7 4.4
-7 7 4 4.4 2.7
-7 7 3 12.3 5.3
-7 7 3 10.3 5.8
-7 7 3 7.9 4
-7 7 3 9.1 3.5
-7 7 2 17.1 6.8
-7 7 2 18.3 4.9
7 -7 -2 13.8 7.5
-7 7 1 136.09 16.4
-7 7 1 122.59 13.4
7 -7 -1 177.18 25.2
7 -7 -1 112.39 9.3
-7 7 0 192.38 16.9
-7 7 0 231.28 22
7 -7 0 180.68 20.1
7 -7 0 200.38 15
-7 7 -1 99.09 11.7
7 -7 1 88.79 14.2
7 -7 1 112.69 10
-7 7 -2 19.1 10.3
-7 7 -2 16.6 4.9
7 -7 2 24.8 5.4
7 -7 2 9.8 5.6
7 -7 2 14.6 6.3
-7 7 -3 6.1 3.6
7 -7 3 3.2 3.7
7 -7 3 12.3 5.8
7 -7 3 4.4 4.4
-7 7 -4 1 3
7 -7 4 7.5 5.2
7 -7 4 7.6 5.4
7 -7 4 5.3 4.7
7 -7 4 8.5 2.9
-7 7 -5 4.5 3.7
7 -7 5 9.9 5.1
7 -7 5 2.6 4.4
-7 7 -6 31 7.3
7 -7 6 22.8 6.3
7 -7 6 28.4 7.8
7 -7 7 1.7 5
7 -7 8 86.29 14.8
7 -7 9 -4.6 5
7 -7 10 8.4 8.3
7 -7 11 5.7 8.4
-7 8 10 49.7 12.3
7 -8 -10 82.69 20.7
-7 8 9 6.3 6.5
7 -8 -9 -1.3 7.8
-7 8 8 56.69 11.3
7 -8 -8 53.49 15.9
-7 8 7 12.2 6.3
7 -8 -7 37.8 12.2
-7 8 6 11.1 5.3
7 -8 -6 1 7.3
-7 8 5 68.39 11.4
-7 8 5 55.39 10
-7 8 5 78.79 10.8
-7 8 4 10.2 5.6
-7 8 4 10 4.9
-7 8 4 10 4.6
-7 8 4 20.6 4.9
-7 8 3 107.49 16.9
-7 8 3 125.69 13.7
-7 8 3 136.39 14.1
-7 8 3 125.39 18
-7 8 2 130.39 14.5
-7 8 2 123.99 18.8
-7 8 1 3.7 4.8
-7 8 1 2.8 3.3
-7 8 0 228.68 19.2
-7 8 0 223.48 23
7 -8 0 212.78 16.7
-7 8 -1 4.1 3.5
7 -8 1 5.4 3.3
-7 8 -2 123.49 14.3
7 -8 2 133.59 14
-7 8 -3 111.69 13.4
7 -8 3 94.99 12.5
7 -8 3 109.59 15.5
-7 8 -4 11.8 5
7 -8 4 11.5 7.2
7 -8 4 10.4 5.3
7 -8 4 13.5 6.8
-7 8 -5 71.99 10.5
7 -8 5 53.39 10.6
7 -8 5 69.09 11.7
-7 8 -6 13.4 5.7
7 -8 6 12.4 6.5
7 -8 6 9.9 5.3
7 -8 7 34.9 10.2
7 -8 8 56.49 12.3
7 -8 9 6.1 7.2
7 -8 10 27.7 11.2
-7 9 10 20.4 9.2
7 -9 -10 33.7 16.4
-7 9 9 23 8.8
7 -9 -9 23.9 12.4
-7 9 8 28.2 8.2
7 -9 -8 50.19 15.5
-7 9 7 0.7 4.7
7 -9 -7 10.8 11.2
-7 9 6 58.89 10.6
-7 9 6 48 9.4
-7 9 6 62.39 9.9
-7 9 5 64.39 11.4
-7 9 5 64.59 10.6
-7 9 5 57.89 11.5
-7 9 4 122.69 13.5
-7 9 4 124.89 18.4
-7 9 4 123.49 14.2
-7 9 4 129.49 18.5
-7 9 3 38.7 10.7
-7 9 3 43.9 7.8
-7 9 3 29.3 6.6
-7 9 2 102.09 17.8
-7 9 2 100.19 13
-7 9 1 44.6 8.1
-7 9 0 174.38 18.6
-7 9 -1 37 7.9
7 -9 1 29.8 6.3
-7 9 -2 78.69 11.4
7 -9 2 83.69 10.9
-7 9 -3 41.1 8.4
7 -9 3 29.3 7.3
-7 9 -4 145.69 16
7 -9 4 95.59 13.7
-7 9 -5 67.59 11.1
7 -9 5 49.7 10.8
-7 9 -6 71.39 11.6
7 -9 6 56.39 12.1
7 -9 6 68.39 12.1
7 -9 7 1.5 3.6
7 -9 7 0.4 5.8
7 -9 8 28.1 10.2
7 -9 9 20.7 9.4
7 -9 10 7.4 8.9
-7 10 9 20.3 8.5
7 -10 -9 36.2 17.3
-7 10 8 -2.4 5
7 -10 -8 -0.7 8.5
-7 10 7 1 5.2
-7 10 6 4.2 5
-7 10 6 3.8 5.6
-7 10 6 9.5 5.7
-7 10 5 36.6 8.2
-7 10 5 52.39 12.2
-7 10 4 86.59 11
-7 10 4 56.69 13.5
-7 10 4 71.79 11
-7 10 3 56.19 13.8
-7 10 3 46.8 8.8
-7 10 3 42.9 8
-7 10 2 6.6 4.3
-7 10 1 155.68 17.5
-7 10 0 129.19 16.1
-7 10 -1 146.99 16.8
-7 10 -2 1.4 3.8
7 -10 2 8.5 5
-7 10 -3 58.89 10.3
7 -10 3 42.5 9
-7 10 -4 49.99 10
7 -10 4 57.99 10.8
-7 10 -5 36.9 8.5
7 -10 5 25.7 8.9
-7 10 -6 4.2 4.9
7 -10 6 16.4 8.2
7 -10 7 2.3 4.5
7 -10 7 0.5 6
7 -10 8 7.6 8.7
7 -10 9 20.4 10
7 -11 -8 20.1 14.4
-7 11 7 7.3 6.3
-7 11 6 41.9 9.5
-7 11 6 35.2 9.5
-7 11 5 56.59 12.9
-7 11 5 53.29 10.1
-7 11 4 33.2 8.3
-7 11 4 24.5 6.5
-7 11 4 36.1 11.2
-7 11 3 42.1 8.5
-7 11 2 51.99 9.5
-7 11 1 27.8 7.4
-7 11 0 11 5.4
-7 11 -1 27.4 7.7
-7 11 -2 73.29 12.3
-7 11 -3 34.7 8.9
7 -11 3 46.8 13.4
-7 11 -4 19.6 7.5
7 -11 4 45.3 9.8
-7 11 -5 57.59 11.6
7 -11 5 47 11.3
-7 11 -6 44.7 10.3
7 -11 6 29.2 9.9
7 -11 7 0.8 7.3
7 -11 8 32.2 11.2
-7 12 7 24.7 9
-7 12 6 3.9 5.8
-7 12 5 2.7 5.1
-7 12 5 5.3 6.9
-7 12 4 9.5 5.6
-7 12 4 7.3 5.9
-7 12 3 8.1 5.7
-7 12 2 0.2 4.6
-7 12 1 -2.9 3.8
-7 12 0 5.2 4.7
-7 12 -1 9.2 5.7
-7 12 -2 13.7 6.6
-7 12 -3 5.3 5.4
-7 12 -4 6.1 6.1
-7 12 -5 -0.4 5.2
7 -12 5 3.7 7.5
-7 12 -6 1.4 5.8
7 -12 6 -5.3 6.6
7 -12 7 23.3 10.6
-7 13 6 -0.7 6
-7 13 5 22.9 8.3
-7 13 4 17 7.1
-7 13 3 25 7.8
-7 13 2 122.49 17.4
-7 13 1 4.3 5.2
-7 13 0 159.18 19.9
-7 13 -1 6.6 5.9
-7 13 -2 117.89 17
-7 13 -3 38.5 10
-7 13 -4 8.9 6.4
-7 13 -5 30.8 9.9
-7 13 -6 -7.3 5.6
-7 14 4 3.6 5.8
-7 14 3 4.6 6.4
-7 14 2 29.6 8.7
-7 14 1 7.1 6.7
-7 14 0 19.3 7.8
-7 14 -1 32 10
-7 14 -2 15.8 8.1
-7 14 -3 6.5 7.3
-7 14 -4 -1.8 5.9
-7 14 -5 8.7 7.5
-7 15 3 -4.7 5.5
-7 15 2 4.9 6.3
-7 15 1 22.9 9.2
-7 15 0 35.9 10.7
-7 15 -1 28.2 10.2
-7 15 -2 7 6.7
-7 15 -3 6.5 7.5
8 15 -2 9.6 7.3
-8 -15 1 25.3 8.4
8 15 -1 13.6 8
-8 -15 0 6.4 5.7
8 15 0 -5.2 5
-8 -15 -1 38.3 10
8 15 1 23.2 9
-8 -15 -2 7 6.8
8 15 2 5.8 7.8
8 14 -5 13.9 9.8
-8 -14 4 0.6 7.2
-8 -14 4 4.8 6.4
8 14 -4 0.8 7.2
-8 -14 3 3.3 7.2
8 14 -3 -8 5.5
8 14 -2 11.5 7.9
-8 -14 1 0.9 4.2
8 14 -1 2 6
-8 -14 0 97.19 14
8 14 0 77.69 13.8
-8 -14 -1 10.7 6.6
8 14 1 4.5 6.1
-8 -14 -2 10.4 6.4
8 14 2 6.2 6.1
-8 -14 -3 2 5.7
8 14 3 0.3 5.3
-8 -14 -4 3.3 6
8 14 4 3 5.6
8 14 5 14.6 7.2
-8 -13 6 12.5 8.4
-8 -13 5 10 8.6
-8 -13 5 6.2 7.1
8 13 -5 2.8 7
-8 -13 4 15.1 8.8
8 13 -4 7.7 7.1
-8 -13 3 9 7.4
8 13 -3 10.6 7.5
-8 -13 2 13.6 5.7
8 13 -2 19.4 8
-8 -13 1 3.1 4.5
8 13 -1 6.8 6.3
-8 -13 0 3.7 5.2
8 13 0 -2.8 4.4
-8 -13 -1 7.1 5.7
8 13 1 10.6 6
-8 -13 -2 10.7 5.7
8 13 2 31.3 8.7
-8 -13 -3 10.1 6.4
8 13 3 11.8 6.9
-8 -13 -4 5.8 6.2
8 13 4 15.8 6.7
-8 -13 -5 -1.7 4.8
8 13 5 16.7 6
-8 -13 -6 13.1 7.2
8 13 6 16.7 8.9
-8 -12 7 4.6 8.3
-8 -12 6 1.4 8.2
-8 -12 6 5.7 6.6
-8 -12 5 21.8 9.8
-8 -12 5 42.4 10.7
8 12 -5 38 10.2
-8 -12 4 4.6 6.9
8 12 -4 10.7 7
8 12 -4 21.2 9.2
-8 -12 3 10.8 7.7
8 12 -3 43.7 10
8 12 -3 18.4 8.6
-8 -12 2 30.1 7.1
8 12 -2 7.1 6.2
8 12 -2 22.4 9.7
-8 -12 1 10.3 5.3
8 12 -1 15.9 6.9
8 12 -1 16.7 9.2
-8 -12 0 6.9 4.8
8 12 0 19.7 7.3
-8 -12 -1 17.5 6.1
8 12 1 20.7 7.1
-8 -12 -2 16.6 6.4
8 12 2 14.9 6.6
-8 -12 -3 31.3 8
8 12 3 30.3 8.3
-8 -12 -4 15 6.3
8 12 4 10.8 5.9
-8 -12 -5 36.5 8.8
8 12 5 32.6 10
8 12 5 24.8 7.7
-8 -12 -6 5.8 6.1
8 12 6 -4.5 6.3
8 12 7 9.6 8.1
-8 -11 8 8.8 9.4
-8 -11 7 15.3 8.8
-8 -11 6 16.7 8.2
-8 -11 6 15.3 6.8
-8 -11 6 0.3 6.8
-8 -11 5 116.39 17.3
-8 -11 5 104.79 18.3
8 11 -5 124.89 16.6
-8 -11 4 20.2 8.5
8 11 -4 25.2 8.7
8 11 -4 37.4 10.5
-8 -11 3 116.99 17.7
8 11 -3 107.99 15.3
8 11 -3 142.99 19.8
-8 -11 2 119.39 13.9
8 11 -2 136.79 17
8 11 -2 112.49 18.2
-8 -11 1 22.8 6.1
8 11 -1 14.2 7.7
8 11 -1 17.6 6.4
-8 -11 0 53.59 9.2
8 11 0 59.29 12.9
8 11 0 47.4 10.2
-8 -11 -1 23 6.8
8 11 1 30.4 7.8
8 11 1 4.1 6.4
-8 -11 -2 111.69 14.3
8 11 2 131.19 15.9
-8 -11 -3 169.58 18.1
8 11 3 146.19 17.5
8 11 3 127.59 16.4
-8 -11 -4 20.4 7.1
8 11 4 31 8.3
8 11 4 37.4 8.3
-8 -11 -5 94.99 13.6
8 11 5 69.99 15.8
8 11 5 104.99 15.3
8 11 5 136.99 14.6
-8 -11 -6 21.3 7.5
8 11 6 17.4 7.5
8 11 6 12 7.5
8 11 7 14.4 9
8 11 8 15.5 8.6
-8 -10 9 -3.6 5.5
-8 -10 8 22.4 9.7
-8 -10 7 21 9.3
-8 -10 6 36.6 11.4
-8 -10 5 -0.9 4.2
-8 -10 5 1.6 5.9
-8 -10 5 -1.5 4.2
8 10 -5 -5.2 4.4
8 10 -5 9.1 6.5
-8 -10 4 56.49 12.9
8 10 -4 66.59 11.7
8 10 -4 72.99 13.7
-8 -10 3 38.6 6.8
-8 -10 3 31.1 9.2
8 10 -3 27.9 8.8
8 10 -3 21.7 6.7
-8 -10 2 58.79 8.6
8 10 -2 33.7 8.3
8 10 -2 43.2 10.9
-8 -10 1 21.1 5.8
8 10 -1 12.2 5.5
8 10 -1 39.9 10.2
-8 -10 0 0.6 3.1
8 10 0 -0.6 3.7
8 10 0 -1.9 4.4
-8 -10 -1 23.2 6.2
8 10 1 11 5.2
8 10 1 20.5 8.5
-8 -10 -2 45.2 8.8
8 10 2 46.7 8.7
8 10 2 52.79 12
8 10 2 44.4 8.1
-8 -10 -3 33.9 7.8
8 10 3 37.1 7.9
8 10 3 45.1 8.7
8 10 3 26.7 9.2
-8 -10 -4 67.89 10.9
8 10 4 73.29 11.6
8 10 4 63.89 10.4
-8 -10 -5 3.4 5.4
8 10 5 0.4 5.2
8 10 5 5 4.1
8 10 5 3.4 5.4
-8 -10 -6 27.2 7.7
8 10 6 37.5 10.1
8 10 6 16 6.8
8 10 7 2.3 6.8
8 10 7 -5 5.5
8 10 8 31.5 10.7
8 10 9 22.2 9.5
-8 -9 9 36.2 11.8
-8 -9 8 22.1 9.9
-8 -9 7 50.99 12.1
-8 -9 6 89.79 14.1
-8 -9 6 56.59 13.8
-8 -9 5 -3.2 4.9
-8 -9 5 2.5 4.6
8 9 -5 1.8 4.9
8 9 -5 0.2 4.2
-8 -9 4 37.5 9.6
-8 -9 4 43.5 10.6
8 9 -4 56.09 10.2
8 9 -4 52.49 10.8
-8 -9 3 35.3 6.2
-8 -9 3 23.4 8
8 9 -3 19.5 7.6
8 9 -3 38.9 8.3
-8 -9 2 42 7.4
8 9 -2 53.09 9.5
8 9 -2 61.49 11.8
-8 -9 1 54.19 8.5
8 9 -1 54.09 9.2
8 9 -1 52.19 11.8
-8 -9 0 2.3 3.2
8 9 0 3.9 4.1
8 9 0 -0.8 4.4
-8 -9 -1 61.99 9.2
8 9 1 51.29 9
8 9 1 62.89 8.7
8 9 1 55.29 12.4
-8 -9 -2 46 8.8
8 9 2 63.99 9.6
8 9 2 50.09 8.9
8 9 2 76.09 13.9
-8 -9 -3 41.7 8
8 9 3 20.1 7.9
8 9 3 25.9 9.1
8 9 3 41.9 7.9
8 9 3 46.4 8.2
-8 -9 -4 68.69 10.5
8 9 4 37.3 10.9
8 9 4 58.59 10.2
8 9 4 58.29 9.2
-8 -9 -5 7.2 4.9
8 9 5 -2.9 2.7
8 9 5 -0.9 3.6
8 9 5 2.6 4.4
-8 -9 -6 89.89 12.5
8 9 6 81.09 14.9
8 9 6 118.29 16
8 9 6 58.89 11.9
8 9 7 22 8.7
8 9 7 38.9 8.6
8 9 8 4.7 7.3
8 9 9 6.8 7.6
-8 -8 10 27.1 10.2
-8 -8 9 59.99 14.2
-8 -8 8 37.2 11.3
-8 -8 7 31.8 10
-8 -8 6 145.49 18.2
-8 -8 6 123.59 19.5
-8 -8 5 23.1 8.8
-8 -8 5 18.8 6.2
8 8 -5 14 5.8
8 8 -5 16.6 6.6
-8 -8 4 110.59 15.8
-8 -8 4 103.09 16.2
8 8 -4 110.49 15.2
8 8 -4 113.39 13.8
-8 -8 3 2.9 2.7
-8 -8 3 -1.8 3.7
-8 -8 3 4.5 4.9
8 8 -3 7.2 4.8
8 8 -3 0.8 4.5
-8 -8 2 19 6.6
-8 -8 2 14.4 4.3
8 8 -2 10.3 5.1
8 8 -2 10.1 5.5
-8 -8 1 47 7.2
-8 -8 1 32.3 8.6
8 8 -1 50.09 8.3
8 8 -1 37.8 9.3
-8 -8 0 52.49 8.1
8 8 0 54.69 7.1
8 8 0 39 9.8
8 8 0 35.2 7.2
-8 -8 -1 38.3 6.9
8 8 1 33.8 6.3
8 8 1 43.8 7.9
8 8 1 36.5 9.1
-8 -8 -2 14.5 5.1
8 8 2 10.8 6.5
8 8 2 6.1 3.8
8 8 2 11.9 4.3
8 8 2 5.6 4.4
-8 -8 -3 8.4 4.5
8 8 3 3.9 5.1
8 8 3 1.5 3.4
8 8 3 6.5 5.3
8 8 3 6.5 4.2
-8 -8 -4 102.19 11.9
8 8 4 87.09 14.7
8 8 4 100.89 11.4
8 8 4 109.79 13.6
8 8 4 57.49 10.8
-8 -8 -5 21 6.1
8 8 5 25.4 7.6
8 8 5 25.8 5.6
8 8 5 13.4 7.7
8 8 5 9.6 5.2
-8 -8 -6 123.09 13.7
8 8 6 87.49 14.2
8 8 6 91.59 13.8
8 8 6 151.48 18.3
8 8 7 35.6 7.6
8 8 7 18.2 5.3
8 8 7 48.8 10.8
8 8 8 9 6.7
8 8 9 74.09 15.4
8 8 10 20.4 10.1
-8 -7 10 4 7.2
-8 -7 9 18.7 8.5
-8 -7 8 45.7 11.6
-8 -7 7 14.9 7.5
-8 -7 6 78.99 13.2
-8 -7 5 137.19 19.3
8 7 -5 130.49 16.7
8 7 -5 143.19 15.1
-8 -7 4 79.09 12.7
-8 -7 4 90.99 14.8
8 7 -4 101.69 13.9
8 7 -4 110.49 12.6
-8 -7 3 148.09 17.7
-8 -7 3 127.49 11.3
-8 -7 3 123.69 15.1
8 7 -3 146.69 14.8
8 7 -3 114.99 15.4
-8 -7 2 19.6 6.4
-8 -7 2 17.5 6
-8 -7 2 26.2 5
8 7 -2 29.5 7.9
8 7 -2 15 5.1
-8 -7 1 41.1 10.4
-8 -7 1 46.3 7
-8 -7 1 40.8 9.8
8 7 -1 50.69 9.9
8 7 -1 32 11.3
8 7 -1 48.5 5.9
8 7 -1 42.2 7.3
-8 -7 0 78.59 14.5
-8 -7 0 50.19 7.7
-8 -7 0 55.49 12.8
8 7 0 73.59 13.3
8 7 0 58.89 8.8
8 7 0 55.09 10.6
8 7 0 61.59 7.4
-8 -7 -1 45.2 7.3
-8 -7 -1 43.6 11
8 7 1 36.7 6.4
8 7 1 45.8 7.4
8 7 1 29.4 8.5
8 7 1 47.6 9.8
-8 -7 -2 19.3 5.3
8 7 2 13.5 4.7
8 7 2 14.3 6.2
8 7 2 24.5 7.3
8 7 2 20.4 5.3
8 7 2 30.7 8.5
-8 -7 -3 122.69 13.9
8 7 3 144.39 13.3
8 7 3 155.68 14.1
8 7 3 122.39 19.6
8 7 3 128.49 16.1
8 7 3 145.09 18.5
-8 -7 -4 79.19 10
8 7 4 73.39 13.1
8 7 4 51.69 11
8 7 4 67.29 8.9
8 7 4 77.09 12.8
8 7 4 79.59 10.9
-8 -7 -5 156.48 15.7
8 7 5 174.38 20.7
8 7 5 133.99 18.1
8 7 5 149.99 17.5
8 7 5 124.09 15.1
8 7 5 142.79 12.7
-8 -7 -6 70.99 9.8
8 7 6 71.69 11.7
8 7 6 54.29 11.1
8 7 6 51.29 9.5
8 7 7 14.3 6.6
8 7 8 17.2 7.8
8 7 9 10.7 6.8
8 7 10 2.4 6.5
-8 -6 11 0.3 5.1
-8 -6 10 13.7 8.7
-8 -6 9 32.6 10.1
-8 -6 8 7.5 6.7
-8 -6 7 18.7 7.5
-8 -6 6 15.3 6.6
8 6 -6 23.5 6.9
-8 -6 5 42.6 11.4
8 6 -5 51.19 9.6
8 6 -5 53.19 8.1
-8 -6 4 37.5 9.7
-8 -6 4 47.5 8.8
8 6 -4 60.89 8.3
8 6 -4 52.89 10.1
-8 -6 3 2.2 2.1
-8 -6 3 5.4 4.9
-8 -6 3 -1.4 2.5
8 6 -3 5.5 3.5
8 6 -3 6.2 4.3
8 6 -3 5.8 5.4
-8 -6 2 26.3 7.1
-8 -6 2 28.4 7
-8 -6 2 40.9 5.7
-8 -6 2 32.5 8.5
8 6 -2 34.3 4.2
8 6 -2 32.3 8.2
8 6 -2 27.9 5.8
8 6 -2 20.6 7.9
8 6 -2 23 6.6
-8 -6 1 278.57 24.7
-8 -6 1 268.07 20.6
-8 -6 1 295.97 25.3
8 6 -1 269.17 25.2
8 6 -1 278.17 19.3
8 6 -1 273.57 26
8 6 -1 305.17 21.9
8 6 -1 232.38 22.8
-8 -6 0 18.6 6.6
-8 -6 0 23 4.8
-8 -6 0 26.5 8.6
8 6 0 24.1 5.3
8 6 0 19.7 6.6
8 6 0 31.7 4.8
8 6 0 15.4 6
8 6 0 21.6 6.2
-8 -6 -1 284.87 20.9
-8 -6 -1 247.38 24.4
-8 -6 -1 271.97 25.3
8 6 1 274.97 23.4
8 6 1 284.37 20.3
8 6 1 261.27 20.9
8 6 1 246.28 25.1
8 6 1 270.07 24.5
-8 -6 -2 39.2 6.5
-8 -6 -2 32.6 9.1
-8 -6 -2 23.1 7.6
8 6 2 27.4 5.6
8 6 2 37.7 6.4
8 6 2 30.6 7.8
8 6 2 22.3 7.4
8 6 2 21.8 6.8
-8 -6 -3 5.3 8
-8 -6 -3 7.8 6.9
-8 -6 -3 2.1 3.6
8 6 3 5.9 3.2
8 6 3 14 4.8
8 6 3 -0.4 4.1
8 6 3 2.3 4.1
8 6 3 2 4.8
-8 -6 -4 36.3 6.8
8 6 4 47.1 6.9
8 6 4 34.5 8.6
8 6 4 33.4 7.8
8 6 4 42 8.1
8 6 4 41.6 9.5
-8 -6 -5 52.39 8.4
8 6 5 51.89 7.1
8 6 5 59.59 11.2
8 6 5 64.09 10.7
8 6 5 41.3 8.3
8 6 5 46.9 8.9
-8 -6 -6 12.9 5.6
8 6 6 13.9 5.1
8 6 6 17.3 5.8
8 6 6 17.1 7.1
8 6 7 14.8 6.9
8 6 8 11.2 6.6
8 6 9 17.3 8.6
8 6 10 20.7 8.6
8 6 11 5.4 6.9
-8 -5 11 8.5 5.5
-8 -5 10 23.2 8.7
-8 -5 9 67.79 13.5
-8 -5 8 41 10.4
-8 -5 7 34 8.9
-8 -5 6 7.4 4.8
-8 -5 6 6.4 4.8
8 5 -6 14 5.5
-8 -5 5 30.6 7.2
8 5 -5 31.1 5.8
8 5 -5 36.3 7.9
-8 -5 4 71.69 12
8 5 -4 51.89 9.2
8 5 -4 48.6 7.1
-8 -5 3 122.69 16
-8 -5 3 127.09 14.3
-8 -5 3 152.08 11.5
8 5 -3 149.39 16
8 5 -3 166.18 15.3
8 5 -3 137.29 12.4
-8 -5 2 47.5 8.3
-8 -5 2 49.5 8.3
-8 -5 2 44.4 8.6
-8 -5 2 47.7 6.3
8 5 -2 74.69 12.7
8 5 -2 50.79 8.8
8 5 -2 51.09 10.9
8 5 -2 50.69 7.3
-8 -5 1 329.07 26.2
-8 -5 1 286.87 26.6
-8 -5 1 401.86 28.8
-8 -5 1 327.17 23.6
8 5 -1 348.87 28.8
8 5 -1 324.37 22.4
8 5 -1 327.07 24.2
8 5 -1 294.07 26
-8 -5 0 49.4 6.8
-8 -5 0 47.7 9.9
-8 -5 0 67.39 14.2
8 5 0 48.5 5.9
8 5 0 44.1 9.2
8 5 0 44.2 6.9
8 5 0 35.9 8.6
8 5 0 45.6 9
-8 -5 -1 324.87 27.6
-8 -5 -1 331.67 23.1
-8 -5 -1 278.07 26.1
8 5 1 316.17 26.6
8 5 1 344.97 23.5
8 5 1 304.77 25.4
8 5 1 315.97 22.4
8 5 1 266.97 26.8
-8 -5 -2 41.1 9.4
-8 -5 -2 55.59 7.7
-8 -5 -2 51.09 9.8
8 5 2 58.19 13.5
8 5 2 58.89 7.7
8 5 2 38.6 8.7
8 5 2 42.3 6.6
8 5 2 67.09 10.7
-8 -5 -3 130.59 16
-8 -5 -3 140.49 16.9
-8 -5 -3 149.59 13.1
8 5 3 132.69 16.5
8 5 3 138.69 16.5
8 5 3 124.89 11.9
8 5 3 140.79 15.2
8 5 3 160.08 13.6
-8 -5 -4 42.3 7.3
-8 -5 -4 64.69 12.8
8 5 4 60.19 10.6
8 5 4 56.69 7.4
8 5 4 62.19 11
8 5 4 48.5 8.2
8 5 4 79.49 11.8
-8 -5 -5 28.9 6.3
8 5 5 34.2 7.7
8 5 5 28 6.5
8 5 5 37 5.2
8 5 5 29.1 7.1
8 5 5 35 8.6
-8 -5 -6 6 4.4
8 5 6 20.8 7.4
8 5 6 13.6 4.9
8 5 6 0.5 4.2
8 5 6 15.8 4.7
8 5 7 28.1 7.9
8 5 8 44 10.5
8 5 9 57.79 12.1
8 5 10 35.5 10.7
8 5 11 -1 6.2
-8 -4 11 8.8 5.6
-8 -4 10 10.4 6.4
-8 -4 10 1.1 5
-8 -4 9 125.79 16.7
-8 -4 9 138.79 18.7
-8 -4 8 1.8 4.9
-8 -4 8 -1.9 3.8
-8 -4 7 5.2 5.3
-8 -4 7 5.1 4.7
-8 -4 6 27.5 7.1
-8 -4 6 37.6 7.9
8 4 -6 42.2 8.4
-8 -4 5 88.39 11.4
-8 -4 5 84.09 11.2
8 4 -5 79.29 8.8
8 4 -5 75.49 11.2
-8 -4 4 4 3.5
8 4 -4 1.9 2.4
8 4 -4 -0.5 3.2
-8 -4 3 173.38 14.8
-8 -4 3 154.68 12.4
-8 -4 3 176.68 15.7
-8 -4 3 174.98 19.6
8 4 -3 153.48 16.8
8 4 -3 178.88 16
8 4 -3 179.68 13.9
-8 -4 2 42.3 6.8
-8 -4 2 38.5 7.4
-8 -4 2 25.2 6.5
-8 -4 2 41 8.8
-8 -4 2 44 5.5
8 4 -2 45.7 9.6
8 4 -2 24.6 6.3
8 4 -2 42.1 6.2
8 4 -2 35.3 7.6
-8 -4 1 818.82 53.19
-8 -4 1 731.93 54.79
-8 -4 1 816.32 52.69
-8 -4 1 808.72 56.39
8 4 -1 818.62 53.09
8 4 -1 788.02 55.39
8 4 -1 850.31 57.39
-8 -4 0 3.4 4.7
-8 -4 0 1.4 2.4
-8 -4 0 3.8 3.6
8 4 0 3.1 3.5
8 4 0 0.1 3.6
8 4 0 1.6 1.6
8 4 0 1.2 2.4
8 4 0 -2.1 2.4
-8 -4 -1 849.22 56.79
-8 -4 -1 844.32 60.59
-8 -4 -1 944.31 61.09
8 4 1 998.4 61.29
8 4 1 792.12 55.99
8 4 1 853.31 56.79
8 4 1 766.82 58.59
-8 -4 -2 41.3 6.4
-8 -4 -2 48.8 11.1
8 4 2 39.8 7.9
8 4 2 35.8 5.9
8 4 2 42.9 6.4
8 4 2 38.2 7.8
8 4 2 41.5 10.3
-8 -4 -3 183.28 18.3
-8 -4 -3 154.28 18.1
-8 -4 -3 195.78 15.3
8 4 3 180.28 16.8
8 4 3 170.48 16.9
8 4 3 169.18 15.2
8 4 3 195.18 18.8
8 4 3 198.38 14.8
-8 -4 -4 2.2 3.2
-8 -4 -4 -1.9 4.2
8 4 4 -1 2.6
8 4 4 -0.5 3.9
8 4 4 0.2 2
8 4 4 1.9 2.8
8 4 4 2.9 3.8
-8 -4 -5 61.49 8.5
8 4 5 82.99 10.1
8 4 5 77.89 11.6
8 4 5 76.69 10.4
8 4 5 81.79 7.1
8 4 5 66.19 10.2
-8 -4 -6 31.5 6.5
8 4 6 37.3 5.9
8 4 6 23.6 6.8
8 4 6 52.19 9.5
8 4 7 9.7 5.6
8 4 8 2.8 4.7
8 4 9 149.59 20.2
8 4 10 4.1 5.3
8 4 11 12.9 8.1
-8 -3 12 26.2 8.3
-8 -3 11 23.3 8.2
-8 -3 11 29.6 9.4
-8 -3 10 27.7 8.3
-8 -3 10 39.9 9.6
-8 -3 9 43.6 10.8
-8 -3 9 22.9 7.7
-8 -3 8 15.4 6.8
-8 -3 8 11.2 5.7
-8 -3 7 44 8.7
-8 -3 7 73.99 11.4
8 3 -7 49.99 9.5
-8 -3 6 59.49 9.7
-8 -3 6 58.99 9.6
8 3 -6 39.8 8.7
-8 -3 5 46.2 7.5
-8 -3 5 27.4 6.5
8 3 -5 31.9 7.5
-8 -3 4 125.89 13.4
8 3 -4 122.29 14.4
-8 -3 3 13 4.1
-8 -3 3 15.7 2.7
-8 -3 3 11.1 5.5
-8 -3 3 17.2 4.5
8 3 -3 12.3 4.9
8 3 -3 16.4 5.8
-8 -3 2 495.15 35.9
-8 -3 2 590.34 38.3
-8 -3 2 500.45 38.4
-8 -3 2 518.55 34.7
8 3 -2 519.95 35.4
8 3 -2 495.85 37.7
8 3 -2 606.54 39.6
8 3 -2 475.05 38.1
-8 -3 1 25.6 6.2
-8 -3 1 29.8 4.8
-8 -3 1 43.6 8.8
-8 -3 1 32.5 6.5
-8 -3 1 34.9 5.6
8 3 -1 33.5 5.1
8 3 -1 22 7.2
8 3 -1 25.8 5.9
8 3 -1 27.5 6.3
-8 -3 0 24.9 6.2
-8 -3 0 22.9 6.2
-8 -3 0 39.8 5.2
-8 -3 0 42.4 6
-8 -3 0 33.7 6.4
8 3 0 57.69 9.5
8 3 0 43.2 7.4
8 3 0 38.5 5.4
8 3 0 22.1 6.2
-8 -3 -1 13.8 4.5
-8 -3 -1 22.1 4.4
-8 -3 -1 43.7 9.9
8 3 1 27.2 6.1
8 3 1 25 4.6
8 3 1 24.4 7.6
8 3 1 23.5 4.2
8 3 1 22.1 5.4
-8 -3 -2 544.95 39.2
-8 -3 -2 533.25 35.8
-8 -3 -2 545.85 39.7
8 3 2 523.45 39
8 3 2 493.95 35.5
8 3 2 537.15 35.6
8 3 2 503.85 37.5
8 3 2 513.25 38.5
-8 -3 -3 11.5 3.6
-8 -3 -3 5.8 5.8
-8 -3 -3 18.4 7
8 3 3 15.6 6.3
8 3 3 13.3 4.6
8 3 3 11.6 3.7
8 3 3 4.9 3.2
8 3 3 8.7 3
-8 -3 -4 91.59 14
-8 -3 -4 116.29 10.9
8 3 4 127.49 13.4
8 3 4 114.19 12
8 3 4 126.89 14
8 3 4 132.59 13.3
8 3 4 111.69 9.7
-8 -3 -5 38.2 6.3
8 3 5 36.2 7.1
8 3 5 52.39 5.2
8 3 5 35.5 6.5
8 3 5 39.9 6.7
8 3 5 49.3 8.4
-8 -3 -6 49.4 7.5
8 3 6 63.29 10.1
8 3 6 60.99 9.8
8 3 7 60.89 10.8
8 3 8 22 7.9
8 3 9 34.4 9
8 3 10 65.19 13.5
8 3 11 49 12.9
8 3 12 63.09 15
-8 -2 12 10 6.4
-8 -2 11 17.1 7.3
-8 -2 11 23.7 8.3
-8 -2 10 32.6 9.1
-8 -2 10 12.2 7.1
-8 -2 9 48 8.4
-8 -2 9 50.19 10.2
-8 -2 9 32.8 8.9
-8 -2 8 10.4 5.6
-8 -2 8 13.5 4.8
-8 -2 8 7 5.1
-8 -2 7 -0.7 3.3
-8 -2 7 2.4 3.1
-8 -2 7 0.8 4.2
8 2 -7 -0.6 3.9
-8 -2 6 298.67 23.6
-8 -2 6 283.57 23.2
-8 -2 6 297.97 21.4
8 2 -6 266.27 23.6
-8 -2 5 188.38 17.5
-8 -2 5 197.78 16.8
8 2 -5 217.38 18.7
-8 -2 4 642.54 44.3
8 2 -4 639.14 45.5
-8 -2 3 9.4 2
-8 -2 3 11.3 3.6
-8 -2 3 12.1 4.3
8 2 -3 10.3 4.7
8 2 -3 4.6 3.2
-8 -2 2 69.29 6.2
-8 -2 2 64.79 10.4
-8 -2 2 60.79 8.1
-8 -2 2 85.79 9.5
8 2 -2 68.19 9.7
8 2 -2 55.59 8.3
8 2 -2 60.49 9.7
-8 -2 1 253.67 16.2
-8 -2 1 157.38 16.5
-8 -2 1 174.38 14.9
-8 -2 1 191.68 17.7
8 2 -1 224.48 18.3
8 2 -1 215.68 17.8
8 2 -1 213.88 19.1
-8 -2 0 1504.95 98.29
-8 -2 0 1652.43 98.89
-8 -2 0 1528.25 101.89
8 2 0 1445.36 102.09
8 2 0 1678.03 101.39
-8 -2 -1 167.88 16.5
-8 -2 -1 179.18 13.5
-8 -2 -1 163.48 15.8
-8 -2 -1 154.48 12
8 2 1 182.28 13.2
8 2 1 166.08 12.8
8 2 1 136.59 15.4
8 2 1 173.08 14.9
-8 -2 -2 72.19 10.9
-8 -2 -2 68.19 6
-8 -2 -2 77.29 12.1
-8 -2 -2 63.69 7.7
8 2 2 73.39 10.9
8 2 2 67.59 7.6
8 2 2 76.39 8.4
8 2 2 79.29 10.9
8 2 2 71.39 9.8
-8 -2 -3 7.5 4.2
-8 -2 -3 10.1 3.6
-8 -2 -3 9.5 4.8
8 2 3 7.5 3.9
8 2 3 9.1 2.8
8 2 3 4.1 3.4
8 2 3 10.7 3.3
8 2 3 10.2 4.2
-8 -2 -4 632.44 40.4
-8 -2 -4 555.24 43.6
8 2 4 589.64 41.5
8 2 4 592.54 39.3
8 2 4 579.54 41.8
8 2 4 626.74 42.4
8 2 4 622.44 42.1
-8 -2 -5 191.28 15.9
8 2 5 203.08 17.7
8 2 5 214.78 17
8 2 5 191.78 17.2
8 2 5 201.38 16.3
8 2 5 211.38 14
-8 -2 -6 277.87 21
8 2 6 274.17 22.4
8 2 6 298.57 23.8
8 2 7 -0.9 3.7
8 2 8 9.1 5.9
8 2 9 59.89 12.7
8 2 10 23.6 7.7
8 2 11 8.1 6.8
8 2 12 17.2 9.2
-8 -1 11 50.99 10.8
-8 -1 11 38.4 10.4
-8 -1 10 25.3 7.8
-8 -1 10 25.9 7
-8 -1 9 13.1 5.6
-8 -1 9 7 5.8
-8 -1 9 26.9 7.7
-8 -1 8 63.79 10.6
-8 -1 8 51.39 8.3
-8 -1 8 37.9 8.9
-8 -1 7 88.59 12.3
-8 -1 7 102.59 11.6
-8 -1 7 120.99 14.7
8 1 -7 111.39 14.6
-8 -1 6 181.98 14.9
-8 -1 6 160.68 15.5
-8 -1 6 183.78 16.9
8 1 -6 193.48 17.8
-8 -1 5 294.67 24.1
-8 -1 5 320.47 23.4
8 1 -5 311.57 25.5
-8 -1 4 127.69 13.6
8 1 -4 122.29 14.8
-8 -1 3 414.26 26.6
-8 -1 3 386.96 29.4
-8 -1 3 444.96 29
8 1 -3 380.76 31.2
-8 -1 2 861.21 53.49
-8 -1 2 889.51 50.69
-8 -1 2 639.34 51.49
8 1 -2 856.61 54.69
8 1 -2 651.63 53.39
-8 -1 1 351.16 27.2
-8 -1 1 275.17 24
-8 -1 1 382.06 25.2
-8 -1 1 400.76 27.4
8 1 -1 454.45 28.4
8 1 -1 392.96 28.1
8 1 -1 316.37 27.1
-8 -1 0 91.79 9.3
-8 -1 0 99.39 12
-8 -1 0 150.08 11.7
-8 -1 0 95.99 9.1
8 1 0 110.89 12.5
8 1 0 123.89 12.4
8 1 0 103.99 12.2
-8 -1 -1 258.77 18.9
-8 -1 -1 265.77 17.5
-8 -1 -1 283.77 18.6
-8 -1 -1 225.58 20.7
-8 -1 -1 241.28 21
8 1 1 227.08 17.9
8 1 1 303.87 23
8 1 1 230.88 19.8
8 1 1 222.68 20.6
-8 -1 -2 661.13 42.6
-8 -1 -2 613.44 45
-8 -1 -2 643.54 41
-8 -1 -2 664.13 45.8
8 1 2 634.64 42.6
8 1 2 635.44 45.1
8 1 2 640.64 42.3
8 1 2 651.13 44.2
8 1 2 646.24 45.3
-8 -1 -3 386.26 26.1
-8 -1 -3 371.16 29
-8 -1 -3 345.87 28.8
-8 -1 -3 376.36 23.8
8 1 3 412.56 26.8
8 1 3 368.46 27.3
8 1 3 371.96 25.6
8 1 3 363.06 28
8 1 3 369.56 28.3
-8 -1 -4 104.19 9.3
-8 -1 -4 104.09 12.7
8 1 4 101.39 8.2
8 1 4 96.99 10.4
8 1 4 94.89 11.3
8 1 4 93.69 10.5
8 1 4 88.09 10.5
-8 -1 -5 297.97 20.9
8 1 5 238.48 18.5
8 1 5 302.77 22
8 1 5 301.47 18.6
8 1 5 312.27 22.9
8 1 5 315.57 21.5
8 1 5 271.27 20.8
-8 -1 -6 152.48 13.6
8 1 6 185.18 14.9
8 1 6 172.78 16
8 1 7 108.79 14.5
8 1 8 44.9 9.5
8 1 9 25.9 8.6
8 1 10 43.1 11.3
8 1 11 50.99 12
8 1 12 29.5 10.9
-8 0 12 84.29 17.8
-8 0 11 38.6 9.8
-8 0 11 33.7 8.5
-8 0 10 270.57 25.4
-8 0 10 313.67 25.1
-8 0 10 277.97 25.7
-8 0 9 0.5 3.2
-8 0 9 -4.5 4
-8 0 9 -3.6 3.6
-8 0 8 21.3 6.5
-8 0 8 42.6 7.8
-8 0 8 33.8 8.5
8 0 -8 35.7 9.4
-8 0 7 69.59 10.8
-8 0 7 70.69 10.3
-8 0 7 64.39 9
8 0 -7 54.59 10.7
-8 0 6 151.08 16.5
-8 0 6 162.38 14.5
-8 0 6 153.98 13.7
8 0 -6 162.58 18.5
-8 0 5 62.99 7.8
-8 0 5 52.19 7.4
-8 0 5 55.19 8.7
8 0 -5 51.29 9.6
-8 0 4 8.9 3.9
-8 0 4 6.9 2.7
8 0 -4 11.7 5.2
-8 0 3 841.72 52.99
-8 0 3 836.52 55.09
-8 0 3 846.82 56.09
8 0 -3 865.41 58.49
-8 0 2 389.36 23.9
-8 0 2 331.27 24.9
-8 0 2 353.46 26.2
8 0 -2 325.17 26.3
8 0 -2 346.87 27.3
-8 0 1 1744.43 112.49
-8 0 1 1763.32 109.69
8 0 -1 1634.44 112.29
8 0 -1 1845.12 112.99
-8 0 0 1378.16 77.69
-8 0 0 1131.09 74.19
-8 0 0 1036 75.29
8 0 0 1097.29 76.59
-8 0 -1 1317.47 77.39
-8 0 -1 1075.99 72.09
-8 0 -1 1122.19 72.69
8 0 1 1157.78 74.29
8 0 1 1003.6 74.39
8 0 1 1128.89 75.29
-8 0 -2 294.07 21.5
-8 0 -2 288.07 21.2
-8 0 -2 287.67 24.1
8 0 2 319.87 23.2
8 0 2 316.97 21.8
8 0 2 303.97 24
8 0 2 309.77 24
8 0 2 322.47 21.5
-8 0 -3 767.32 51.29
-8 0 -3 754.12 54.09
8 0 3 776.62 50.79
8 0 3 773.42 52.49
8 0 3 774.72 53.49
8 0 3 829.92 53.99
8 0 3 834.32 52.09
-8 0 -4 13 3.3
-8 0 -4 8.8 4.9
8 0 4 14 2.8
8 0 4 16 4.4
8 0 4 13.2 3.9
8 0 4 13.1 4.5
8 0 4 9.7 3.7
-8 0 -5 45.7 6.6
8 0 5 54.69 7.2
8 0 5 64.39 8.7
8 0 5 52.49 4.1
8 0 5 52.79 7.5
8 0 5 57.99 7.3
8 0 5 49.99 4
-8 0 -6 147.69 12.5
8 0 6 163.08 14.8
8 0 6 137.79 12.7
8 0 7 63.79 10.4
8 0 8 30.1 8.2
8 0 9 4.2 5.5
8 0 10 275.77 26.4
8 0 11 51.39 12.2
8 0 12 72.69 15
-8 1 12 24.1 8.3
-8 1 11 57.79 11.1
-8 1 10 25.1 7.4
-8 1 10 19.7 7.3
-8 1 9 12.5 6
-8 1 9 18.3 6.1
-8 1 9 22.7 7.3
-8 1 8 49.7 8.9
-8 1 8 55.99 10.3
-8 1 8 45.3 8.6
8 -1 -8 49.1 10.7
-8 1 7 81.59 10.7
-8 1 7 81.99 11.9
-8 1 7 85.79 11.1
8 -1 -7 105.09 14.5
-8 1 6 172.08 17.1
-8 1 6 195.38 16.3
-8 1 6 193.48 16.1
8 -1 -6 200.28 21.7
-8 1 5 328.67 23.5
-8 1 5 338.57 24.7
-8 1 5 305.17 22.9
8 -1 -5 286.17 26.1
-8 1 4 109.29 10.3
-8 1 4 111.69 9.6
8 -1 -4 131.39 16
-8 1 3 383.36 25.8
-8 1 3 416.56 28.3
8 -1 -3 399.16 31.1
-8 1 2 675.13 46.5
-8 1 2 649.14 43.8
8 -1 -2 780.42 48.7
8 -1 -2 648.74 46.7
-8 1 1 341.57 25.5
8 -1 -1 317.17 25.3
-8 1 0 128.89 13.1
-8 1 0 123.19 10.5
8 -1 0 131.29 13.3
8 -1 0 121.79 14
-8 1 -1 228.48 17.5
-8 1 -1 247.38 20.3
8 -1 1 264.37 19.8
8 -1 1 231.18 19.9
-8 1 -2 647.94 40.9
-8 1 -2 597.64 43.4
8 -1 2 681.73 42.8
8 -1 2 576.14 43
8 -1 2 589.94 43.5
-8 1 -3 347.17 25.1
-8 1 -3 328.27 27.6
8 -1 3 382.76 26.3
8 -1 3 361.86 24.6
8 -1 3 373.56 25.5
8 -1 3 354.06 27.3
8 -1 3 373.36 27.5
-8 1 -4 111.49 9.7
-8 1 -4 105.79 12.3
8 -1 4 97.59 10.7
8 -1 4 96.29 10.9
8 -1 4 111.89 11
8 -1 4 104.09 8.5
-8 1 -5 304.57 21.7
8 -1 5 310.97 21.7
8 -1 5 295.07 23.4
8 -1 5 293.17 19.2
8 -1 5 302.67 21.8
8 -1 5 315.07 22.1
8 -1 5 313.07 22.9
8 -1 5 271.47 19.2
-8 1 -6 152.68 13.5
8 -1 6 186.78 16.5
8 -1 6 168.38 15.3
8 -1 7 118.39 14.5
8 -1 7 109.29 14.7
8 -1 8 51.69 10.1
8 -1 8 47.1 9.7
8 -1 9 15.4 7
8 -1 9 11.6 6.4
8 -1 10 196.98 22.5
8 -1 10 151.68 21.3
8 -1 11 63.59 12.8
8 -1 11 45.1 11.8
8 -1 12 41.3 11.4
-8 2 12 24.2 8.7
-8 2 11 12.9 5.9
-8 2 10 3.6 5
-8 2 10 15.2 6.7
-8 2 9 55.29 9.8
-8 2 9 55.49 10.9
-8 2 8 14.4 5.3
-8 2 8 9.9 6.2
-8 2 8 10.6 4.8
8 -2 -8 20.9 7.6
-8 2 7 2.2 4.1
-8 2 7 1.3 3.6
-8 2 7 0.5 3.4
8 -2 -7 3.4 5.3
-8 2 6 288.77 22.6
-8 2 6 295.67 21.9
-8 2 6 291.67 23.5
8 -2 -6 268.37 25.3
-8 2 5 216.58 17.6
-8 2 5 211.38 16.5
8 -2 -5 231.58 21.2
-8 2 4 654.63 43
-8 2 4 665.03 44.5
8 -2 -4 660.83 48.3
-8 2 3 10.5 2.3
-8 2 3 9.1 3.9
-8 2 3 12.2 2.4
8 -2 -3 4.5 4.3
-8 2 2 65.39 9.3
-8 2 2 71.49 7.2
8 -2 -2 94.59 12.4
8 -2 -2 57.39 9
-8 2 1 154.38 13.9
-8 2 1 183.48 16.7
8 -2 -1 227.58 18.5
8 -2 -1 211.18 17.3
-8 2 0 2148.89 127.19
-8 2 0 1963.4 123.89
8 -2 0 2105.09 127.29
8 -2 0 1615.74 125.99
-8 2 -1 249.68 20.3
-8 2 -1 168.18 14.4
8 -2 1 175.08 17.6
8 -2 1 183.58 16.4
-8 2 -2 61.89 7.2
-8 2 -2 43.3 7.1
8 -2 2 48.6 7.6
8 -2 2 87.29 10
-8 2 -3 4.4 3.1
-8 2 -3 10 3
8 -2 3 9.4 4.3
8 -2 3 6.8 3.5
8 -2 3 3.8 3.2
8 -2 3 5.6 3.4
8 -2 3 8.1 3
-8 2 -4 584.84 45.1
-8 2 -4 615.44 42.1
8 -2 4 624.54 43.8
8 -2 4 623.34 42.5
8 -2 4 632.84 42.4
8 -2 4 638.04 44
8 -2 4 682.93 43.8
8 -2 4 652.53 41.1
-8 2 -5 204.48 16.6
8 -2 5 229.48 17.8
8 -2 5 219.78 16.3
8 -2 5 231.48 19
8 -2 5 227.98 17.5
8 -2 5 197.78 14.4
8 -2 5 215.88 17.1
-8 2 -6 314.17 22
8 -2 6 282.27 24.3
8 -2 6 278.27 22.9
8 -2 7 9.7 5.5
8 -2 7 0.3 3.4
8 -2 8 16.9 6
8 -2 8 22.4 7.1
8 -2 9 48.6 11.5
8 -2 9 59.69 11.5
8 -2 10 21.8 8.8
8 -2 10 18.6 7.8
8 -2 11 8.1 7
8 -2 11 20.2 7.6
8 -2 12 8.1 8
-8 3 12 48.6 11.8
-8 3 11 59.89 11.9
-8 3 10 34.6 8.7
-8 3 10 38.4 9.9
-8 3 9 37.9 8.8
-8 3 9 38.7 9.7
8 -3 -9 38.4 13.5
-8 3 8 11.6 5.7
-8 3 8 7.8 4.9
8 -3 -8 13 7.7
-8 3 7 55.29 8.9
8 -3 -7 52.89 11.8
-8 3 6 58.79 9.1
-8 3 6 58.89 7.6
8 -3 -6 54.79 11.2
-8 3 5 38.3 6.8
-8 3 5 32.5 4.9
8 -3 -5 34.9 9.2
-8 3 4 135.49 11.8
-8 3 4 125.49 10.8
-8 3 4 129.49 11.9
-8 3 4 130.79 10
8 -3 -4 124.39 16.9
-8 3 3 27.1 6.5
-8 3 3 9.5 2
-8 3 3 15.2 3
8 -3 -3 18.2 6.2
-8 3 2 548.75 34.5
-8 3 2 493.55 37
8 -3 -2 484.65 37.4
8 -3 -2 550.24 39.2
-8 3 1 28.4 4.9
-8 3 1 35.1 7.2
8 -3 -1 41.7 8.5
8 -3 -1 41.8 7.8
-8 3 0 41 6
-8 3 0 61.29 11.3
8 -3 0 42.5 8.5
8 -3 0 40.2 8.8
-8 3 -1 29.4 6.9
-8 3 -1 31.7 5.2
8 -3 1 31.3 7
8 -3 1 32.4 7.8
-8 3 -2 541.75 36.9
-8 3 -2 486.35 39.6
8 -3 2 617.84 40.2
8 -3 2 539.85 36.6
8 -3 2 531.55 38.4
-8 3 -3 7.6 3
-8 3 -3 11.1 5.2
8 -3 3 15.3 5
8 -3 3 14.7 4
8 -3 3 17.8 4.8
-8 3 -4 121.19 10.9
-8 3 -4 113.79 15.7
8 -3 4 111.59 12.3
8 -3 4 139.79 11.5
8 -3 4 101.29 12.1
8 -3 4 113.19 10.5
8 -3 4 135.49 12.5
-8 3 -5 26.1 5.1
8 -3 5 46.3 8.4
8 -3 5 35.4 6
8 -3 5 31 4
8 -3 5 33.1 6.3
8 -3 5 33.6 6.2
8 -3 5 42.1 6.7
-8 3 -6 51.39 7.3
8 -3 6 46.8 9.6
8 -3 6 56.89 8.7
8 -3 7 60.39 9.8
8 -3 7 60.89 11.3
8 -3 8 10.3 6.2
8 -3 8 8.3 5.2
8 -3 9 30 9.2
8 -3 9 57.49 10.5
8 -3 10 36.8 10.5
8 -3 10 33.3 9.8
8 -3 11 44.8 11.9
8 -3 12 27.4 10.4
-8 4 11 34.9 9.3
-8 4 10 9.1 5.7
-8 4 10 6.8 6.5
-8 4 9 132.69 17
-8 4 9 151.68 18.2
8 -4 -9 139.69 20.8
-8 4 8 -3.6 2.9
8 -4 -8 0.6 5.8
-8 4 7 2.9 3.6
8 -4 -7 5 5.4
-8 4 6 38.9 7.3
8 -4 -6 35.1 10
-8 4 5 72.39 9.6
8 -4 -5 71.39 12.9
-8 4 4 1.1 2.5
-8 4 4 3.5 2.7
-8 4 4 4.4 1.4
-8 4 4 2.7 3.8
-8 4 4 3.5 1.7
8 -4 -4 3.1 4.6
-8 4 3 180.18 13.7
-8 4 3 172.78 16.6
8 -4 -3 192.58 18.9
-8 4 2 46.6 6.4
-8 4 2 56.39 9.7
8 -4 -2 52.69 10.4
-8 4 1 1007.3 63.99
-8 4 1 789.72 59.89
8 -4 -1 857.41 63.79
8 -4 -1 1026.1 64.19
-8 4 0 1.4 3.5
-8 4 0 0.3 2
8 -4 0 -1 3.4
8 -4 0 3 4
-8 4 -1 852.11 53.79
-8 4 -1 787.12 56.99
8 -4 1 853.31 56.29
8 -4 1 823.42 52.29
8 -4 1 743.23 55.99
-8 4 -2 28.9 5.5
-8 4 -2 16.9 5.7
8 -4 2 31 5.2
8 -4 2 47.1 8.3
8 -4 2 35.8 7.7
-8 4 -3 140.79 16.7
-8 4 -3 184.58 14.4
8 -4 3 159.88 16.3
8 -4 3 169.98 14.4
8 -4 3 189.58 15.5
-8 4 -4 1.3 2.6
-8 4 -4 2.3 3.9
8 -4 4 2.1 3.2
8 -4 4 -3.2 2.9
8 -4 4 4.1 3.2
8 -4 4 4.9 2.6
-8 4 -5 76.79 9.4
8 -4 5 78.19 9.3
8 -4 5 77.79 10.8
8 -4 5 71.09 9.8
8 -4 5 63.19 10.3
-8 4 -6 30.4 6
8 -4 6 37.7 8.5
8 -4 6 51.19 7.7
8 -4 7 2.5 3.8
8 -4 7 -2.1 3.9
8 -4 8 -0.9 5.3
8 -4 8 -4.5 3.7
8 -4 9 159.38 18.2
8 -4 9 115.49 18
8 -4 10 5.4 6.4
8 -4 11 29.2 10.7
-8 5 11 20.8 8.2
-8 5 10 24.6 8.7
-8 5 10 52.29 11.1
-8 5 9 53.09 10.8
8 -5 -9 70.89 15.6
-8 5 8 32 7.7
8 -5 -8 17.3 8.5
-8 5 7 21.7 6.4
8 -5 -7 36 11.1
-8 5 6 20.5 5.7
8 -5 -6 3.4 7
-8 5 5 39.2 7.4
8 -5 -5 30.5 9.7
-8 5 4 63.79 9.8
-8 5 4 39.6 7
-8 5 4 52.59 6
-8 5 4 58.29 8.8
8 -5 -4 60.89 12.1
-8 5 3 153.38 12.8
-8 5 3 163.88 16.3
-8 5 3 154.58 13.7
8 -5 -3 162.48 20.9
-8 5 2 49.4 7
-8 5 2 51.59 8.9
8 -5 -2 46.6 9.2
8 -5 -2 60.19 12
-8 5 1 338.97 25.4
-8 5 1 333.77 28.8
8 -5 -1 371.26 30.3
8 -5 -1 373.36 29.3
-8 5 0 55.19 7.8
-8 5 0 42.8 8.9
8 -5 0 63.49 10.5
8 -5 0 63.39 11.4
8 -5 0 66.49 5.7
-8 5 -1 330.57 25.2
-8 5 -1 362.46 30
8 -5 1 361.56 30.9
8 -5 1 319.37 23.6
8 -5 1 355.06 28.2
-8 5 -2 41.8 6.8
8 -5 2 52.19 7.1
8 -5 2 60.09 11.1
8 -5 2 66.49 10.4
-8 5 -3 125.59 15.6
-8 5 -3 120.49 13
8 -5 3 134.59 14.7
8 -5 3 130.99 13.2
8 -5 3 135.29 12.4
-8 5 -4 32.5 8.2
-8 5 -4 46.7 7.4
8 -5 4 60.19 9.8
8 -5 4 69.39 9.5
8 -5 4 61.39 9
8 -5 4 66.59 7.5
-8 5 -5 32.2 6.2
8 -5 5 32.4 7.2
8 -5 5 34.3 5.9
8 -5 5 33.9 7.4
-8 5 -6 10.1 4.2
8 -5 6 11.2 4
8 -5 6 9.6 3.9
8 -5 6 5.1 3.5
8 -5 6 13.6 5.7
8 -5 7 29.9 8.6
8 -5 7 23.5 6.3
8 -5 8 29.4 11.3
8 -5 8 43.4 10.6
8 -5 9 55.69 12.6
8 -5 10 19.4 8.7
8 -5 11 19.7 9.1
-8 6 11 0.1 5.1
-8 6 10 31.3 10.7
-8 6 10 27 9.3
-8 6 9 16.9 7.2
8 -6 -9 19 10.6
-8 6 8 8 4.9
8 -6 -8 11 9.2
-8 6 7 19 6.1
8 -6 -7 14.4 8.4
-8 6 6 17 5.7
8 -6 -6 6.1 6.9
-8 6 5 56.29 8.4
-8 6 5 70.39 9.9
-8 6 5 64.09 9.5
8 -6 -5 71.29 14.3
-8 6 4 62.09 10.4
-8 6 4 42.7 8.1
-8 6 4 37.5 7.2
-8 6 4 54.19 6.6
8 -6 -4 56.19 13.1
-8 6 3 4 2.7
-8 6 3 3.6 4.4
-8 6 3 -1.3 2.4
8 -6 -3 6.2 5.9
-8 6 2 30.6 8.1
-8 6 2 35.2 6.1
8 -6 -2 33.4 9.1
8 -6 -2 42.7 10.7
-8 6 1 285.57 22.3
-8 6 1 318.97 27
8 -6 -1 285.77 19
8 -6 -1 297.07 26.7
8 -6 -1 293.07 26
-8 6 0 20.3 6.5
-8 6 0 26 5.7
8 -6 0 25.9 8.5
8 -6 0 18.2 6.7
8 -6 0 32.4 4.1
-8 6 -1 294.77 21.5
-8 6 -1 282.57 25.3
8 -6 1 272.57 24.1
8 -6 1 214.28 22.9
8 -6 1 280.07 19.5
-8 6 -2 30.9 11.8
-8 6 -2 29.2 5.9
8 -6 2 25.2 7.6
8 -6 2 37.5 6.2
8 -6 2 35.4 8.6
-8 6 -3 3 5.6
-8 6 -3 7.4 3.7
8 -6 3 5.8 4.4
8 -6 3 5.8 3.7
8 -6 3 2.6 4.2
-8 6 -4 46.8 7.7
8 -6 4 48.2 6.4
8 -6 4 46.2 8.5
8 -6 4 40.1 8.7
8 -6 4 46 8.4
-8 6 -5 47.5 8.3
8 -6 5 52.19 10.1
8 -6 5 47.2 7
8 -6 5 64.69 10.4
-8 6 -6 15 5.4
8 -6 6 17.9 5.4
8 -6 6 13.6 5
8 -6 6 27.8 5.9
8 -6 6 23.7 7.2
8 -6 7 20.6 7.8
8 -6 8 5.4 5.4
8 -6 9 32.9 10
8 -6 10 7.1 6.6
8 -6 11 8.7 8.6
-8 7 10 13.7 7.5
8 -7 -10 -0.6 9.5
-8 7 9 17.1 7.2
8 -7 -9 22 12.3
-8 7 8 37.6 9.1
8 -7 -8 18.3 11.2
-8 7 7 8.6 5.2
8 -7 -7 4.7 7.9
-8 7 6 61.79 10.3
8 -7 -6 85.69 17.2
-8 7 5 155.68 16.4
-8 7 5 147.19 14.5
-8 7 5 141.79 15.1
8 -7 -5 134.29 21.2
-8 7 4 104.09 12.3
-8 7 4 80.59 12.2
-8 7 4 89.79 10
-8 7 4 90.39 13.4
8 -7 -4 67.09 15.3
-8 7 3 137.59 16.8
-8 7 3 170.88 14.1
-8 7 3 158.28 14.3
8 -7 -3 145.79 20.9
-8 7 2 33.9 6.3
-8 7 2 31.9 8.9
8 -7 -2 30.6 9.3
-8 7 1 41.9 7
-8 7 1 49.3 11.5
8 -7 -1 41.9 10.4
-8 7 0 51.69 9.9
-8 7 0 60.99 9
8 -7 0 59.39 6.5
8 -7 0 48.4 10.7
-8 7 -1 43 7.8
-8 7 -1 48.1 11.1
8 -7 1 59.89 14.3
8 -7 1 58.29 11
8 -7 1 46.3 6.6
-8 7 -2 26.5 6
8 -7 2 41.1 9.6
8 -7 2 26.2 5.6
8 -7 2 21.4 7.8
-8 7 -3 156.68 15.9
8 -7 3 140.59 13.8
8 -7 3 128.89 15.9
8 -7 3 152.08 17.7
-8 7 -4 77.89 10.9
8 -7 4 102.49 12.8
8 -7 4 96.19 12.9
8 -7 4 68.79 11.9
-8 7 -5 146.49 15.9
8 -7 5 145.29 16.3
8 -7 5 121.79 15.8
8 -7 5 155.78 18.5
-8 7 -6 77.69 11.1
8 -7 6 67.59 10.7
8 -7 6 55.79 10.9
8 -7 7 23.2 8.7
8 -7 8 13.8 7.6
8 -7 9 16.6 8.8
8 -7 10 4.2 7.5
-8 8 10 25.9 8.7
8 -8 -10 58.49 18.5
-8 8 9 78.19 13.5
8 -8 -9 72.79 18.8
-8 8 8 24.1 7.5
8 -8 -8 7.4 10.4
-8 8 7 31.8 8
8 -8 -7 26.7 12.3
-8 8 6 140.99 16.9
8 -8 -6 133.29 22.9
-8 8 5 16.3 5.8
-8 8 5 24.1 6.4
-8 8 5 11.7 6.2
8 -8 -5 13.1 8.8
-8 8 4 124.29 14.2
-8 8 4 107.79 15.7
-8 8 4 127.39 17.3
-8 8 4 115.19 12.5
8 -8 -4 106.89 19
-8 8 3 2.8 3
-8 8 3 3.8 4.5
-8 8 3 8.3 5.5
-8 8 2 7.5 3.9
-8 8 2 8 6.4
-8 8 1 65.29 13.9
-8 8 1 40.6 7.7
-8 8 0 39.3 7.8
-8 8 -1 35.3 7.1
8 -8 1 30.4 9.4
8 -8 1 46.9 7
-8 8 -2 8.8 4.6
8 -8 2 21.5 7.6
8 -8 2 13 4.6
-8 8 -3 6.5 4.5
8 -8 3 3.3 5.3
8 -8 3 -0.5 3.7
-8 8 -4 97.49 13
8 -8 4 125.39 14.7
-8 8 -5 18.4 5.9
8 -8 5 16.8 7
8 -8 5 30.2 8
-8 8 -6 126.79 15.7
8 -8 6 172.48 19.8
8 -8 6 132.09 15.5
8 -8 7 32.2 7
8 -8 7 25 6.4
8 -8 7 41.5 10.1
8 -8 8 5.9 6.3
8 -8 9 58.39 14.3
8 -8 10 38.9 12.7
-8 9 9 17.3 8
8 -9 -9 43.9 16.5
-8 9 8 -0.3 4.4
8 -9 -8 2.7 9.6
-8 9 7 26.4 7.8
8 -9 -7 36.8 14
-8 9 6 104.19 13.8
-8 9 6 91.39 13.3
-8 9 6 83.09 12.3
8 -9 -6 83.49 18.4
-8 9 5 3.3 5.4
-8 9 5 1 3.6
-8 9 5 0.5 4
-8 9 4 44 7.6
-8 9 4 33.3 7.9
-8 9 4 48.3 11.1
-8 9 3 45.2 11.8
-8 9 3 40.2 7.7
-8 9 2 69.19 15.6
-8 9 2 58.69 9.8
-8 9 1 88.59 12.1
-8 9 0 2.5 3.6
-8 9 -1 44.6 8.5
-8 9 -2 59.89 10.4
8 -9 2 58.29 12.6
8 -9 2 53.69 9.1
-8 9 -3 36.8 8
8 -9 3 38.1 10.4
8 -9 3 37.9 8
-8 9 -4 47.4 9.4
8 -9 4 57.99 10.5
-8 9 -5 0 3.6
8 -9 5 -1.7 4.3
-8 9 -6 86.49 12.8
8 -9 6 66.39 11.9
8 -9 6 102.09 14.9
8 -9 7 36 8
8 -9 7 49.2 11.8
8 -9 8 7.2 7.5
8 -9 9 22.2 10.4
-8 10 9 5.1 6.7
8 -10 -9 15.1 13.7
-8 10 8 27 8.6
8 -10 -8 40.9 16.8
-8 10 7 16.4 6.9
8 -10 -7 4.5 9.6
-8 10 6 4.6 10
-8 10 6 32.4 8.4
-8 10 6 18.7 6.4
8 -10 -6 36.9 14
-8 10 5 1.1 5
-8 10 5 -2.1 5.8
-8 10 4 87.99 11.6
-8 10 4 81.39 10.9
-8 10 4 39 11
-8 10 3 31 10.9
-8 10 3 52.99 9.1
-8 10 2 48 9.6
-8 10 1 17.3 5.9
-8 10 0 -1.3 3.5
-8 10 -1 19.7 6.1
-8 10 -2 51.19 10.1
-8 10 -3 38 8.8
8 -10 3 20.3 6.9
8 -10 3 35.9 10.3
-8 10 -4 67.69 11.5
8 -10 4 70.89 11.8
-8 10 -5 6.4 5.3
8 -10 5 2.5 6.3
-8 10 -6 13.7 6.5
8 -10 6 26 9.1
8 -10 7 2.4 4.9
8 -10 7 -3.1 6.2
8 -10 8 19.3 9.8
8 -10 9 12.9 9.6
-8 11 8 20.1 7.7
8 -11 -8 -1.4 11.2
-8 11 7 15.3 6.7
8 -11 -7 13.3 11.1
-8 11 6 22.6 7.8
-8 11 6 34.3 8.6
-8 11 5 132.49 19.7
-8 11 5 116.09 15.8
-8 11 4 26.1 7.3
-8 11 4 36.5 8
-8 11 4 33.8 10.8
-8 11 3 168.28 18.7
-8 11 2 166.28 19.4
-8 11 1 15.4 6
-8 11 0 63.39 11.2
-8 11 -1 30.6 8.4
-8 11 -2 126.39 16.6
-8 11 -3 133.69 17.2
8 -11 3 141.49 21.4
-8 11 -4 37.8 9.4
8 -11 4 31.5 9.2
-8 11 -5 132.29 17.2
8 -11 5 93.69 15.2
-8 11 -6 23.8 8.4
8 -11 6 34.6 10.5
8 -11 7 18.1 9.3
8 -11 8 2.5 8.6
-8 12 7 -1.8 5.7
8 -12 -7 0.6 10.3
-8 12 6 -3.2 5
-8 12 5 33.2 12.1
-8 12 5 29.6 8.5
-8 12 4 11.6 5.9
-8 12 3 21.4 7.1
-8 12 2 25.2 7.8
-8 12 1 34.1 8.8
-8 12 0 14.1 5.9
-8 12 -1 11.6 6
-8 12 -2 23.1 7.7
-8 12 -3 38.7 9.8
-8 12 -4 16.8 7.7
-8 12 -5 33.2 9.6
-8 12 -6 3.4 6.1
8 -12 6 11 8.6
8 -12 7 -0.7 7.5
-8 13 6 8.1 7.3
-8 13 4 21.5 7.2
-8 13 3 6.4 5.8
-8 13 2 6.1 5.9
-8 13 1 0.4 4.6
-8 13 0 10.2 5.9
-8 13 -1 3.8 5.7
-8 13 -2 33.3 9.9
-8 13 -3 16.2 7.4
-8 13 -4 11.4 7.3
-8 13 -5 8.2 6.7
-8 13 -6 10.4 7.7
-8 14 4 -0.9 5
-8 14 3 -1.1 4.8
-8 14 2 26.4 8.5
-8 14 1 1.7 5.6
-8 14 0 98.09 15.2
-8 14 -1 -5.9 4.6
-8 14 -2 4.7 6.4
-8 14 -3 -3.5 5.2
-8 14 -4 -3.7 5.9
-8 14 -5 5.3 7.5
-8 15 2 0.3 6.1
-8 15 1 31 10
-8 15 0 6.5 6.8
-8 15 -1 25.8 9.6
-8 15 -2 -4.6 5.2
-9 -15 1 10.7 6.8
9 15 -1 -1.6 5.7
-9 -15 0 -6.3 4.2
9 15 0 10.7 8.3
-9 -15 -1 5.6 6.4
9 15 1 5.1 6.3
-9 -14 4 11.8 9
9 14 -4 18 9.4
-9 -14 3 21 10.1
9 14 -3 50.89 12.1
-9 -14 2 10.1 8.8
9 14 -2 -4.2 5.6
-9 -14 1 32.2 8.3
9 14 -1 34.3 10
-9 -14 0 7.1 5.6
9 14 0 10.7 6.9
-9 -14 -1 34.7 9.3
9 14 1 30.1 9.3
-9 -14 -2 0.9 5.6
9 14 2 0.9 5.7
-9 -14 -3 39.6 10.1
9 14 3 21.5 8.7
-9 -14 -4 12.6 7.2
9 14 4 22.3 8.5
-9 -13 6 13.5 9.3
-9 -13 5 4.8 5.9
-9 -13 5 3.3 7.4
9 13 -5 5 7.4
-9 -13 4 16.8 9.1
9 13 -4 22.2 10.7
9 13 -4 17.6 8.7
-9 -13 3 10.4 8
9 13 -3 -1.4 5.5
9 13 -3 -6 5.5
-9 -13 2 -1.9 3.8
9 13 -2 -2.1 7.7
9 13 -2 -0.8 5.1
-9 -13 1 37.4 8.5
9 13 -1 42.5 10.6
-9 -13 0 -0.8 3.7
9 13 0 4.8 6
-9 -13 -1 35.4 9.3
9 13 1 38 9.6
-9 -13 -2 5.1 5.2
9 13 2 -1.2 4.6
-9 -13 -3 -1.1 5.4
9 13 3 11.5 6.2
-9 -13 -4 9.6 6.6
9 13 4 25 8.3
-9 -13 -5 -0.7 5.4
9 13 5 9.2 6.1
-9 -13 -6 7 7.3
-9 -12 7 20.9 10.6
-9 -12 6 3.2 8.1
-9 -12 6 -0.4 6.2
-9 -12 5 15.9 8.7
-9 -12 5 12.2 7.3
9 12 -5 20.6 8.5
-9 -12 4 -4.2 4.5
9 12 -4 1 7
9 12 -4 4.2 6
-9 -12 3 9.3 7
9 12 -3 17.8 7.4
9 12 -3 24.1 10.5
-9 -12 2 29.6 7
9 12 -2 19.9 9.9
9 12 -2 28.9 9
-9 -12 1 38.1 8.1
9 12 -1 40.2 11.7
9 12 -1 35.3 9.2
-9 -12 0 54.39 10.5
9 12 0 62.09 15.5
9 12 0 57.89 11.4
-9 -12 -1 34.6 8.6
9 12 1 37.7 9.3
9 12 1 48.1 13.9
-9 -12 -2 14.3 6.5
9 12 2 16.7 6.9
-9 -12 -3 16.9 7.1
9 12 3 41.4 9.2
-9 -12 -4 -8 3.6
9 12 4 13 6.2
-9 -12 -5 20.9 7.5
9 12 5 9.7 5.7
9 12 5 18.8 7.9
-9 -12 -6 9.3 7.1
9 12 6 3 6.6
9 12 7 3.4 6.5
-9 -11 8 0 7.4
-9 -11 7 1.5 6.8
-9 -11 6 -1.3 5.1
-9 -11 6 -4.4 6.6
-9 -11 5 3.4 7.2
9 11 -5 7.1 6.2
-9 -11 4 13.7 8.1
9 11 -4 20.3 7.5
9 11 -4 1.6 7.1
-9 -11 3 46.5 11.6
-9 -11 3 56.29 9
9 11 -3 63.69 11.7
9 11 -3 73.09 14.5
-9 -11 2 -4.5 5.5
-9 -11 2 7.7 4.5
9 11 -2 23.3 8.8
9 11 -2 16 6.4
-9 -11 1 13.8 5.4
9 11 -1 14.4 7.5
9 11 -1 29.3 7.8
-9 -11 0 1.4 3.7
9 11 0 16.5 8.7
9 11 0 9.7 5.6
-9 -11 -1 17 5.9
9 11 1 18.7 8.9
9 11 1 18.5 6.6
-9 -11 -2 4.1 5.2
9 11 2 2 5.8
9 11 2 3.4 4.6
-9 -11 -3 75.19 11.8
9 11 3 86.79 18.2
9 11 3 50.69 9.8
-9 -11 -4 4.4 5.3
9 11 4 3.8 5.5
9 11 4 16.1 5.9
-9 -11 -5 -4.2 4.2
9 11 5 -0.9 3.9
9 11 5 0.9 5.4
-9 -11 -6 -4.8 4.9
9 11 6 7.8 6.9
9 11 6 3.2 9.3
9 11 7 -2.7 6
9 11 8 17.3 9.5
-9 -10 9 37.4 13.1
-9 -10 8 2 6.7
-9 -10 7 79.59 15.8
-9 -10 6 -0.3 6.6
-9 -10 6 -3.8 4.4
-9 -10 5 39.5 11.3
9 10 -5 60.49 12.4
9 10 -5 65.29 11.9
-9 -10 4 -1.6 5.7
9 10 -4 -0.9 5.5
9 10 -4 -2.2 4.4
-9 -10 3 77.79 10.5
-9 -10 3 77.29 14.4
9 10 -3 85.79 13
9 10 -3 84.09 15.1
-9 -10 2 3.4 6.1
-9 -10 2 13.8 4.8
9 10 -2 3.9 5.5
9 10 -2 -0.1 4.4
-9 -10 1 4.2 3.5
9 10 -1 8.8 6.7
9 10 -1 9.8 5.4
-9 -10 0 238.48 21.4
9 10 0 272.07 26.5
9 10 0 278.47 23.4
-9 -10 -1 16.3 5.3
9 10 1 -0.4 4.9
9 10 1 7.7 4.6
-9 -10 -2 3.3 4.1
9 10 2 0.9 3.7
9 10 2 11 4.9
9 10 2 -0.4 5
-9 -10 -3 94.29 13.2
9 10 3 93.09 16.8
9 10 3 109.69 14.2
9 10 3 117.39 14.7
-9 -10 -4 -1.4 4.2
9 10 4 0.1 4.1
9 10 4 5.5 5.1
-9 -10 -5 66.49 10.6
9 10 5 57.19 11.6
9 10 5 37.8 9.6
9 10 5 58.29 9.6
-9 -10 -6 -3.3 4.6
9 10 6 3.5 5.4
9 10 6 -1 4.4
9 10 7 73.19 13.5
9 10 7 50.89 11.6
9 10 8 7 7
9 10 9 19.9 9.7
-9 -9 9 -2.6 6.2
-9 -9 8 34.9 11
-9 -9 7 20 8.3
-9 -9 6 196.28 26.5
-9 -9 6 214.18 24.2
-9 -9 5 5.7 6.9
-9 -9 5 10.1 5.8
9 9 -5 4.3 5.5
9 9 -5 0.1 4.2
-9 -9 4 210.78 27
9 9 -4 296.87 24.2
9 9 -4 311.67 26.5
-9 -9 3 52.99 8
-9 -9 3 50.89 11.5
9 9 -3 67.49 10.4
9 9 -3 62.79 12
-9 -9 2 130.99 18.3
-9 -9 2 159.88 14.3
9 9 -2 158.08 17.1
9 9 -2 148.99 19.7
-9 -9 1 19.9 5.3
9 9 -1 30.5 8.7
9 9 -1 24 6.6
-9 -9 0 390.26 28.5
9 9 0 369.26 32.5
9 9 0 347.27 28.8
-9 -9 -1 19.2 5.7
9 9 1 17.3 5.3
9 9 1 6.4 5.9
9 9 1 15 5.2
-9 -9 -2 141.09 16.1
9 9 2 183.98 18.5
9 9 2 161.68 20.9
9 9 2 153.28 16.4
-9 -9 -3 72.99 11
9 9 3 69.69 10.7
9 9 3 67.19 13.4
9 9 3 57.59 9.9
-9 -9 -4 312.97 24.8
9 9 4 341.97 26.2
9 9 4 255.97 27.1
9 9 4 281.97 23.5
9 9 4 273.87 27.2
-9 -9 -5 14.3 5.9
9 9 5 12 4.6
9 9 5 5.7 5.4
9 9 5 5.9 5.5
-9 -9 -6 181.28 18.8
9 9 6 177.28 20.6
9 9 6 153.38 18.2
9 9 7 27.8 8.3
9 9 7 21.4 8.6
9 9 8 27.7 9.7
9 9 9 -3.3 5.8
-9 -8 10 -0.1 6.8
-9 -8 9 16.6 8.9
-9 -8 8 23.6 10.1
-9 -8 7 42.9 11.3
-9 -8 6 55.09 11.1
-9 -8 6 73.19 15.7
-9 -8 5 59.49 13.3
9 8 -5 80.79 13.3
9 8 -5 66.59 10.8
-9 -8 4 15.3 6.8
-9 -8 4 21.2 7.9
9 8 -4 7.2 5.1
9 8 -4 24.4 6.7
-9 -8 3 9.5 5.5
-9 -8 3 7.6 3.3
-9 -8 3 12.5 6.5
9 8 -3 17.5 5.7
9 8 -3 17 7.2
-9 -8 2 57.19 8
-9 -8 2 31.9 8.5
9 8 -2 38.8 9.3
9 8 -2 39.6 8.1
-9 -8 1 167.78 14.1
-9 -8 1 130.79 19.3
9 8 -1 162.18 19.7
9 8 -1 128.39 15.2
-9 -8 0 18.9 5.1
9 8 0 14.5 5.2
9 8 0 22 7.8
9 8 0 18.1 4.4
-9 -8 -1 161.48 14.7
9 8 1 112.79 17.4
9 8 1 133.09 15.1
9 8 1 161.98 13.7
-9 -8 -2 41.9 7.7
9 8 2 50.19 10.9
9 8 2 39.6 7.5
9 8 2 55.99 9.1
9 8 2 30.5 10.4
-9 -8 -3 17.2 5.5
9 8 3 15.7 5.1
9 8 3 5.1 5.6
9 8 3 13.9 6.9
9 8 3 4.5 4
-9 -8 -4 16.9 5.6
9 8 4 8.1 5.8
9 8 4 27 6.8
9 8 4 20 5.8
9 8 4 22.6 7.4
-9 -8 -5 71.59 10.4
9 8 5 75.39 9.8
9 8 5 70.39 14.2
9 8 5 67.59 11.8
9 8 5 51.49 10.7
-9 -8 -6 66.59 10.5
9 8 6 71.09 12.7
9 8 6 58.19 11.8
9 8 6 75.29 14.1
9 8 7 29.3 6.9
9 8 7 27.6 7.6
9 8 7 36 9.5
9 8 8 5.3 6.3
9 8 9 29.8 10
9 8 10 -0.2 6
-9 -7 10 17.3 8.8
-9 -7 9 29.1 9.7
-9 -7 8 61.59 13.2
-9 -7 7 87.29 14.6
-9 -7 6 120.99 15.8
9 7 -6 111.69 15.9
-9 -7 5 43.9 11.6
9 7 -5 40.8 9.5
9 7 -5 46.5 8.2
-9 -7 4 152.48 16.7
-9 -7 4 136.99 18.9
9 7 -4 133.09 17.4
9 7 -4 179.58 15.4
-9 -7 3 131.29 11.8
-9 -7 3 114.49 16.5
-9 -7 3 138.59 16.3
9 7 -3 159.48 15.8
9 7 -3 145.19 17.6
-9 -7 2 32.5 9.7
-9 -7 2 30 7.8
-9 -7 2 28.4 5.4
-9 -7 2 21.7 7.1
9 7 -2 36.9 7.4
9 7 -2 43.6 9.4
-9 -7 1 34.8 8.9
-9 -7 1 44.6 7
-9 -7 1 44.6 10.9
9 7 -1 41.3 5.7
9 7 -1 42.2 7.7
9 7 -1 48.9 9.9
-9 -7 0 231.88 19.2
-9 -7 0 254.27 24.2
9 7 0 249.58 22.6
9 7 0 245.48 18.3
9 7 0 198.48 25.5
9 7 0 237.98 19.9
-9 -7 -1 33.4 6.7
9 7 1 55.99 7.6
9 7 1 33.5 8.5
9 7 1 47.6 10.9
9 7 1 42 7.5
-9 -7 -2 23.7 5.9
9 7 2 37.1 6.9
9 7 2 28.8 5.9
9 7 2 19.6 7.5
9 7 2 26.6 8.1
-9 -7 -3 159.68 14.3
9 7 3 126.79 14.4
9 7 3 131.39 18.1
9 7 3 137.89 17.1
9 7 3 150.68 14.4
-9 -7 -4 193.98 16.5
9 7 4 167.08 15.2
9 7 4 202.58 17.5
9 7 4 178.28 21.7
9 7 4 153.68 18.2
9 7 4 155.48 19.7
-9 -7 -5 47 8.2
9 7 5 35.8 9.6
9 7 5 31.2 7.7
9 7 5 43.9 9.1
9 7 5 34.7 9.7
9 7 5 41.6 7
-9 -7 -6 79.79 11.6
9 7 6 94.19 13.7
9 7 6 86.29 13.2
9 7 6 110.39 14.9
9 7 7 63.99 12
9 7 7 55.39 8.8
9 7 7 38.7 7.4
9 7 8 77.29 14.2
9 7 9 16.9 8.8
9 7 10 53.19 13.8
-9 -6 11 -6.5 4.8
-9 -6 10 0.7 6.8
-9 -6 9 12.6 8.4
-9 -6 8 2.4 6.3
-9 -6 7 55.99 11.5
-9 -6 6 184.88 18
9 6 -6 176.88 17.9
-9 -6 5 15.4 7.4
9 6 -5 12.5 4.8
9 6 -5 5.9 4.8
-9 -6 4 147.69 11.6
-9 -6 4 142.39 19
9 6 -4 166.68 18.6
9 6 -4 147.89 15.1
-9 -6 3 209.98 20.8
-9 -6 3 221.98 21.1
-9 -6 3 220.28 16.8
9 6 -3 228.68 20.8
9 6 -3 226.98 18.3
-9 -6 2 29.4 7.7
-9 -6 2 24.9 7.4
-9 -6 2 22.3 6.7
-9 -6 2 30.3 5.2
9 6 -2 31.3 6
9 6 -2 32 10
9 6 -2 23.8 6.7
9 6 -2 27 3.9
9 6 -2 22 6.2
-9 -6 1 46.1 9
-9 -6 1 43.3 9.8
-9 -6 1 54.79 9.8
-9 -6 1 63.99 7.8
9 6 -1 45.4 9.3
9 6 -1 52.59 10.6
9 6 -1 58.89 8.3
9 6 -1 49.8 6.1
9 6 -1 59.89 12.3
-9 -6 0 -2 3.5
-9 -6 0 1.5 2.8
-9 -6 0 4.6 4.3
9 6 0 7.8 3.4
9 6 0 2.9 2.4
9 6 0 -4.3 2.5
9 6 0 -0.7 3.8
9 6 0 1.3 5.4
-9 -6 -1 61.49 11.9
-9 -6 -1 46.2 7.2
-9 -6 -1 40.2 9.5
9 6 1 60.69 11.8
9 6 1 63.69 10.9
9 6 1 49.6 11.5
9 6 1 44.7 6.8
9 6 1 49.99 7.8
-9 -6 -2 33.1 10.1
-9 -6 -2 36.7 10.8
-9 -6 -2 36.4 6.5
9 6 2 26.2 5.5
9 6 2 21.8 6.6
9 6 2 35 6.2
9 6 2 17.4 8.3
9 6 2 10.8 5.4
-9 -6 -3 243.38 19
9 6 3 202.78 22.6
9 6 3 218.38 21.2
9 6 3 216.98 18.1
9 6 3 237.28 22.1
9 6 3 234.98 19.3
-9 -6 -4 143.69 15.1
9 6 4 172.98 15.3
9 6 4 145.69 16.4
9 6 4 144.19 18.3
9 6 4 125.99 17.8
9 6 4 151.98 13.4
-9 -6 -5 11.6 5.3
9 6 5 11.3 5
9 6 5 29.9 8.7
9 6 5 10.5 5.2
9 6 5 20.1 4.5
9 6 5 11.8 6.4
-9 -6 -6 196.08 17.5
9 6 6 198.78 21.4
9 6 6 190.68 18.3
9 6 6 228.58 24.5
9 6 6 168.98 17.2
9 6 7 43.1 9.8
9 6 8 9.4 6.3
9 6 9 3.5 5.9
9 6 10 -4 5.6
9 6 11 -0.8 6.4
-9 -5 11 10.8 7
-9 -5 10 75.59 14.7
-9 -5 9 12.6 7.1
-9 -5 8 265.37 25.6
-9 -5 8 291.67 25.1
-9 -5 7 -1.1 4.1
-9 -5 7 3.9 4.6
-9 -5 6 383.36 30.4
-9 -5 6 389.16 30.7
9 5 -6 390.16 30.9
-9 -5 5 40.8 8
9 5 -5 43.5 8.7
9 5 -5 37.9 6.7
-9 -5 4 93.39 14.5
-9 -5 4 76.19 10.8
-9 -5 4 82.09 7.3
9 5 -4 95.09 13
9 5 -4 99.59 10.7
-9 -5 3 23.3 7
-9 -5 3 19.6 3.8
-9 -5 3 21.6 6.4
-9 -5 3 24.7 5.6
-9 -5 3 32.3 8.5
9 5 -3 18 6.2
9 5 -3 11.6 4
9 5 -3 18 7.3
-9 -5 2 77.49 11.8
-9 -5 2 89.89 14
-9 -5 2 75.69 11.9
-9 -5 2 91.19 9.6
9 5 -2 92.59 14.7
9 5 -2 98.79 10.7
9 5 -2 92.09 14.8
9 5 -2 77.99 11.8
-9 -5 1 82.29 9.1
-9 -5 1 64.09 10.6
-9 -5 1 51.39 9.5
-9 -5 1 107.39 15.3
9 5 -1 112.19 11
9 5 -1 68.69 11.7
9 5 -1 62.69 10.6
9 5 -1 84.89 7.3
9 5 -1 81.59 13
-9 -5 0 62.89 11.7
-9 -5 0 45.1 7
-9 -5 0 35.6 7.9
9 5 0 73.09 11.5
9 5 0 56.29 6.4
9 5 0 50.09 7.4
9 5 0 44.9 9.9
9 5 0 114.49 23.7
-9 -5 -1 93.89 13.6
-9 -5 -1 83.49 13.9
-9 -5 -1 96.59 10.2
9 5 1 81.39 8.7
9 5 1 70.79 9.1
9 5 1 70.59 11.5
9 5 1 43.8 9.8
9 5 1 69.29 11.1
-9 -5 -2 94.29 15.1
-9 -5 -2 68.79 12.3
-9 -5 -2 86.39 10.1
9 5 2 103.59 16.1
9 5 2 71.79 11.3
9 5 2 81.59 13
9 5 2 71.39 9.4
9 5 2 90.79 10
-9 -5 -3 20.9 5.1
-9 -5 -3 20.7 8.7
-9 -5 -3 19.9 7.9
9 5 3 28.4 8
9 5 3 10.8 5.7
9 5 3 17.4 5.7
9 5 3 23.8 5.7
9 5 3 22.1 5
-9 -5 -4 100.09 11.1
9 5 4 82.19 11.4
9 5 4 83.89 9.7
9 5 4 84.19 12.8
9 5 4 122.49 15.5
9 5 4 76.99 12.6
-9 -5 -5 55.59 8.4
9 5 5 51.29 9.7
9 5 5 56.19 6.8
9 5 5 32.6 7.5
9 5 5 40.5 8.1
9 5 5 50.79 10.2
-9 -5 -6 375.26 28.4
9 5 6 443.86 32.4
9 5 6 378.46 29.2
9 5 6 351.86 28.3
9 5 6 394.26 31.1
9 5 7 2.8 5.9
9 5 8 286.37 26.6
9 5 9 14.3 7.7
9 5 10 78.59 15.2
9 5 11 2.6 6.7
-9 -4 11 3.5 5.9
-9 -4 10 14.5 7.7
-9 -4 10 9.4 6.3
-9 -4 9 34.9 9.5
-9 -4 9 30.8 9.4
-9 -4 8 59.79 11.2
-9 -4 8 67.19 12.6
-9 -4 7 60.39 10.9
-9 -4 7 71.59 11.4
-9 -4 6 49.1 9.2
-9 -4 6 49.3 9
9 4 -6 51.79 9.9
-9 -4 5 79.99 10.8
9 4 -5 67.39 8.4
9 4 -5 64.69 10.8
-9 -4 4 151.48 10.6
-9 -4 4 141.69 15.2
9 4 -4 156.78 15.3
9 4 -4 136.99 12.3
-9 -4 3 6.7 3.7
-9 -4 3 5.4 2.1
-9 -4 3 11.4 4.3
-9 -4 3 9.9 6
9 4 -3 5 4.6
9 4 -3 8.5 3.3
9 4 -3 5.5 4.5
-9 -4 2 74.49 10
-9 -4 2 95.39 11.7
-9 -4 2 111.99 15.2
-9 -4 2 80.49 8.8
-9 -4 2 89.69 13.1
9 4 -2 81.69 13.1
9 4 -2 86.49 9.8
9 4 -2 93.89 13.5
9 4 -2 100.19 13.1
-9 -4 1 55.49 10
-9 -4 1 44.5 6.3
-9 -4 1 58.49 7.7
-9 -4 1 43.8 8.3
-9 -4 1 63.09 11.4
9 4 -1 39.4 9.2
9 4 -1 45.4 8.7
9 4 -1 44.9 9.2
9 4 -1 66.89 7.8
-9 -4 0 11.8 4.6
-9 -4 0 2.7 2.5
-9 -4 0 7.4 5.7
9 4 0 3.8 5.6
9 4 0 3 2.1
9 4 0 6.2 4
9 4 0 13.1 3.8
9 4 0 9.9 4.2
-9 -4 -1 56.39 7.3
-9 -4 -1 89.39 15.5
-9 -4 -1 61.99 14.2
9 4 1 44.8 5.9
9 4 1 41.1 10
9 4 1 46.7 6.6
9 4 1 26.2 5.9
9 4 1 26.2 7
-9 -4 -2 72.49 9.1
-9 -4 -2 72.69 12.3
-9 -4 -2 80.69 13.7
9 4 2 85.69 12.4
9 4 2 104.99 14.2
9 4 2 103.49 14.9
9 4 2 79.89 9.4
9 4 2 71.49 9
-9 -4 -3 4.6 5.3
-9 -4 -3 5.4 4.2
-9 -4 -3 14.7 4.2
9 4 3 5.1 4.1
9 4 3 8.6 5.8
9 4 3 5.4 3.5
9 4 3 16.1 5.6
9 4 3 6.1 3
-9 -4 -4 180.48 18.7
-9 -4 -4 168.28 14.2
9 4 4 135.79 15.1
9 4 4 160.18 15.8
9 4 4 156.18 14.7
9 4 4 163.68 13.1
9 4 4 156.08 16.6
-9 -4 -5 80.69 9.8
9 4 5 62.29 10.3
9 4 5 83.39 11.8
9 4 5 65.09 10.2
9 4 5 94.49 13.4
9 4 5 83.09 8.3
-9 -4 -6 48.6 7.8
9 4 6 48.5 9.7
9 4 6 53.49 8.1
9 4 6 55.59 10
9 4 6 42.6 7
9 4 7 39.1 9
9 4 7 53.79 10.7
9 4 8 39.4 10
9 4 9 26 8.9
9 4 10 9.9 7.3
9 4 11 19.3 9.2
-9 -3 11 9.8 6.7
-9 -3 11 3.7 5.7
-9 -3 10 3.4 5.7
-9 -3 10 10.4 6.2
-9 -3 9 7.6 5.4
-9 -3 9 11.4 7.1
-9 -3 8 240.68 21.4
-9 -3 8 207.08 23.6
-9 -3 7 -4.2 3
-9 -3 7 1.4 3.9
9 3 -7 -0.9 3.9
-9 -3 6 197.88 17.4
-9 -3 6 176.08 18.8
9 3 -6 180.18 20
-9 -3 5 16.4 4.9
-9 -3 5 22.9 5.9
9 3 -5 19.9 6.2
-9 -3 4 319.07 24.8
9 3 -4 322.07 26.1
-9 -3 3 49.8 8
-9 -3 3 75.69 12.4
-9 -3 3 51.39 5.7
-9 -3 3 54.49 8.5
9 3 -3 58.89 10
9 3 -3 51.09 9.4
-9 -3 2 435.36 30.1
-9 -3 2 415.26 32.7
-9 -3 2 404.36 28.6
-9 -3 2 423.96 32.1
9 3 -2 416.36 32.7
9 3 -2 486.15 34.3
9 3 -2 410.56 29.3
9 3 -2 393.66 31.7
-9 -3 1 304.77 18.6
-9 -3 1 218.88 17.2
-9 -3 1 202.68 20.2
-9 -3 1 211.28 19.6
-9 -3 1 239.18 20.8
9 3 -1 188.28 19.1
9 3 -1 275.17 21.7
9 3 -1 209.18 21.3
9 3 -1 245.58 17.8
-9 -3 0 11.4 3.5
-9 -3 0 17.8 6.1
-9 -3 0 41 13.6
-9 -3 0 25.2 5.8
-9 -3 0 18.1 4.6
9 3 0 20.1 4.4
9 3 0 16.6 5.1
9 3 0 15.4 5.3
9 3 0 20.8 7.5
-9 -3 -1 170.48 17.7
-9 -3 -1 194.78 14.3
-9 -3 -1 204.48 15.6
9 3 1 174.38 16.8
9 3 1 142.39 17.6
9 3 1 268.17 22.4
9 3 1 203.58 14.9
9 3 1 201.58 15.2
-9 -3 -2 370.86 31.6
-9 -3 -2 339.87 30.2
-9 -3 -2 393.96 27.6
9 3 2 418.66 29.9
9 3 2 368.36 27
9 3 2 400.46 31.4
9 3 2 395.46 27.4
9 3 2 409.76 30.7
-9 -3 -3 41.7 9
-9 -3 -3 39.7 8.4
-9 -3 -3 41.5 6.9
9 3 3 54.49 7.7
9 3 3 53.59 9
9 3 3 54.69 7
9 3 3 49.9 9
9 3 3 54.69 10
-9 -3 -4 348.67 30
-9 -3 -4 360.86 25.2
9 3 4 361.06 27.1
9 3 4 344.77 27.6
9 3 4 329.47 24
9 3 4 335.07 25.8
9 3 4 321.97 26.7
-9 -3 -5 11.6 4.1
9 3 5 16.7 3.3
9 3 5 9.9 4.5
9 3 5 28.4 6.9
9 3 5 12.9 4.5
9 3 5 15.6 4.9
-9 -3 -6 164.88 15.7
9 3 6 231.68 19.2
9 3 6 185.68 15
9 3 6 202.58 16
9 3 6 181.88 17.6
9 3 7 -2.7 3.5
9 3 7 -0.7 3.8
9 3 8 234.38 22.6
9 3 9 10.7 6.2
9 3 10 19 7.9
9 3 11 6.6 6.9
-9 -2 12 11.5 7.2
-9 -2 11 35.6 10
-9 -2 11 18.3 8.5
-9 -2 10 2.8 5.7
-9 -2 10 18 7.7
-9 -2 9 115.49 13.6
-9 -2 9 104.59 15.2
-9 -2 9 102.69 15.2
-9 -2 8 17.2 5.4
-9 -2 8 25 7.3
-9 -2 8 15.7 6.5
-9 -2 7 150.78 17.4
-9 -2 7 140.39 17.2
9 2 -7 161.98 18.7
-9 -2 6 93.89 12.8
-9 -2 6 95.49 12.2
9 2 -6 107.59 14.7
-9 -2 5 8.9 4.5
-9 -2 5 7.8 3.5
9 2 -5 2.7 4.3
-9 -2 4 371.06 28.8
9 2 -4 409.96 30.8
-9 -2 3 207.98 16.5
-9 -2 3 190.78 13.6
-9 -2 3 204.98 16.7
9 2 -3 162.68 17.2
9 2 -3 189.18 18
-9 -2 2 78.89 11.9
-9 -2 2 73.29 7.4
-9 -2 2 67.99 8.7
-9 -2 2 69.19 10
9 2 -2 59.39 10.1
9 2 -2 61.79 10.3
9 2 -2 65.29 10.2
-9 -2 1 1038.1 69.79
-9 -2 1 1067.59 73.19
-9 -2 1 1317.57 70.99
-9 -2 1 918.21 71.79
9 2 -1 1031.5 73.79
9 2 -1 1182.98 73.29
-9 -2 0 88.69 9.3
-9 -2 0 64.79 10.2
-9 -2 0 88.79 9.6
-9 -2 0 101.69 11.4
-9 -2 0 90.99 11.3
9 2 0 84.49 11.5
9 2 0 102.09 14.1
9 2 0 105.39 9.1
9 2 0 120.89 12.5
-9 -2 -1 1005.7 61.19
-9 -2 -1 930.11 63.59
-9 -2 -1 898.01 58.69
-9 -2 -1 938.21 59.89
-9 -2 -1 989.6 64.29
9 2 1 853.51 62.59
9 2 1 847.62 59.49
9 2 1 898.01 61.89
9 2 1 912.91 59.49
-9 -2 -2 79.49 13
-9 -2 -2 64.89 7.8
-9 -2 -2 58.49 5.7
-9 -2 -2 60.39 10.4
9 2 2 42.8 7.6
9 2 2 48.7 6.7
9 2 2 62.39 9.1
9 2 2 50.49 6.6
9 2 2 53.89 9.6
-9 -2 -3 178.58 18.1
-9 -2 -3 190.48 15.3
-9 -2 -3 184.08 19.5
9 2 3 183.48 14.7
9 2 3 183.38 16.7
9 2 3 219.48 19
9 2 3 194.98 15.7
9 2 3 195.48 17.7
-9 -2 -4 402.66 27.7
-9 -2 -4 370.76 31.1
9 2 4 390.06 28.6
9 2 4 407.36 30
9 2 4 365.36 26.6
9 2 4 395.96 29.5
9 2 4 394.76 29.6
-9 -2 -5 2.1 3
9 2 5 6.3 2.1
9 2 5 3.9 3.3
9 2 5 7.5 3.4
9 2 5 2.7 3
9 2 5 6.2 3.4
-9 -2 -6 99.39 11
9 2 6 102.89 13.5
9 2 6 94.99 12.6
9 2 7 159.38 18.4
9 2 8 11.3 5.7
9 2 9 128.79 18
9 2 10 25.3 9
9 2 11 15.4 9.2
9 2 12 30.5 11
-9 -1 11 13.7 7.1
-9 -1 11 11.8 7.7
-9 -1 10 8.7 4.9
-9 -1 10 11.5 6.3
-9 -1 10 17.3 7.8
-9 -1 9 60.79 11.9
-9 -1 9 71.29 12.5
-9 -1 9 65.89 10.1
-9 -1 8 54.99 10.2
-9 -1 8 58.89 9.2
-9 -1 8 62.99 11.1
-9 -1 7 42.3 8.7
-9 -1 7 27.3 6.2
-9 -1 7 42.7 8.1
9 1 -7 27.7 8.5
-9 -1 6 177.98 15.8
-9 -1 6 164.38 18
9 1 -6 180.18 17.9
-9 -1 5 3.8 2.6
-9 -1 5 7 4.5
9 1 -5 -0.5 4.3
-9 -1 4 96.29 11.7
9 1 -4 78.79 12.1
-9 -1 3 154.28 14.8
-9 -1 3 184.88 12.5
-9 -1 3 189.78 15.3
9 1 -3 148.29 18.1
-9 -1 2 31.6 4.4
-9 -1 2 31.6 7.2
-9 -1 2 28.1 5.6
9 1 -2 37.2 7.9
9 1 -2 30.4 7.9
-9 -1 1 81.09 8.3
-9 -1 1 91.19 10.9
-9 -1 1 36 7.4
-9 -1 1 52.09 6.5
9 1 -1 58.49 10
9 1 -1 59.09 9.3
9 1 -1 62.99 9.7
-9 -1 0 1279.87 83.99
-9 -1 0 1328.07 87.89
-9 -1 0 1382.86 84.49
9 1 0 1285.87 87.59
9 1 0 1224.88 87.39
9 1 0 1450.15 87.39
-9 -1 -1 50.79 7.1
-9 -1 -1 54.39 6.5
-9 -1 -1 24.6 5.9
-9 -1 -1 44.5 5.5
9 1 1 56.49 11.6
9 1 1 56.29 8.5
9 1 1 39.8 7.6
9 1 1 49 6.4
-9 -1 -2 29.1 3.8
-9 -1 -2 9.4 5.1
-9 -1 -2 23.6 5.2
-9 -1 -2 23.1 4.4
-9 -1 -2 28.7 8.2
9 1 2 16.8 5.7
9 1 2 24.1 6
9 1 2 31.3 5
9 1 2 17.3 5.6
9 1 2 17.1 4
-9 -1 -3 133.89 15.9
-9 -1 -3 154.88 16.2
-9 -1 -3 142.79 12.8
-9 -1 -3 156.28 10.7
9 1 3 167.68 13.5
9 1 3 153.98 14.1
9 1 3 157.98 15.2
9 1 3 160.58 12.5
9 1 3 179.68 16.1
-9 -1 -4 104.79 15
-9 -1 -4 82.99 9.1
9 1 4 68.99 10
9 1 4 70.99 7.6
9 1 4 76.39 10.2
9 1 4 60.79 8.7
9 1 4 67.49 9.5
-9 -1 -5 2.2 2.7
9 1 5 1.4 2.6
9 1 5 6.1 3.7
9 1 5 1.6 1.5
9 1 5 0.6 2.6
9 1 5 1.3 2.3
-9 -1 -6 165.18 14.1
9 1 6 165.78 15
9 1 6 170.08 16.1
9 1 7 28.7 7.5
9 1 8 61.89 11.5
9 1 9 80.39 13.4
9 1 10 30.8 9.7
9 1 11 17.5 8.4
9 1 12 -2 6.5
-9 0 11 -4 4.5
-9 0 11 -0.1 5.3
-9 0 10 5.5 5.2
-9 0 10 -2.8 4.7
-9 0 10 4.1 4.9
-9 0 9 1.7 4.2
-9 0 9 -0.7 5
-9 0 9 -2.2 4.7
-9 0 8 -3.9 4.2
-9 0 8 3.3 4.1
-9 0 8 1 3.8
9 0 -8 2.9 5
-9 0 7 1.1 3
-9 0 7 -2.8 3
-9 0 7 1.9 3.5
9 0 -7 -3.7 3.6
-9 0 6 0.6 2.6
-9 0 6 3.3 3.2
-9 0 6 -1 3.3
9 0 -6 0.7 4.2
-9 0 5 -2.2 3.2
-9 0 5 -1.6 2.1
9 0 -5 -2.3 3.6
-9 0 4 0.4 2.9
9 0 -4 -0.2 3.6
-9 0 3 -1.7 1.3
-9 0 3 2.7 3
-9 0 3 0 2.7
9 0 -3 -4.9 2.6
-9 0 2 -1.8 2.6
-9 0 2 -1.7 1.8
-9 0 2 -2.3 3.2
9 0 -2 -5 3.4
9 0 -2 -4 3.2
-9 0 1 -1.8 2
-9 0 1 -1.5 2.9
9 0 -1 4.1 3.8
9 0 -1 -1.3 3.4
-9 0 0 -1.2 3.8
-9 0 0 1.3 2.3
9 0 0 -2.9 4.8
9 0 0 -1.1 3.1
-9 0 -1 1 2.8
-9 0 -1 -0.6 2.6
-9 0 -1 1.6 2.2
9 0 1 1.7 3.5
9 0 1 -3.3 2.3
9 0 1 -1.9 2.9
-9 0 -2 -4.8 3.4
-9 0 -2 -2 2.2
-9 0 -2 1.4 2.8
9 0 2 -1.5 2.3
9 0 2 -0.6 2.7
9 0 2 -0.4 3.1
-9 0 -3 2.1 4.2
-9 0 -3 -4.8 1.6
9 0 3 -0.4 1.8
9 0 3 -0.4 2.4
9 0 3 -2.2 2.4
9 0 3 -1.3 1.6
9 0 3 0.7 2.9
-9 0 -4 0.2 4.5
-9 0 -4 -2.1 1.9
9 0 4 -2.1 2.1
9 0 4 0.1 1.5
9 0 4 -1.3 1.9
9 0 4 -1.2 2.7
9 0 4 -0.6 2.3
-9 0 -5 0.1 2.3
9 0 5 0.2 1.3
9 0 5 -0.4 2.1
9 0 5 -1 2
9 0 5 1 2.7
9 0 5 0.9 2.5
-9 0 -6 -0.2 2.6
9 0 6 1.7 3
9 0 6 2.4 3.1
9 0 7 2.3 3.9
9 0 8 -0.2 3.5
9 0 9 2.9 5
9 0 10 4.6 5.4
9 0 11 3.3 6
9 0 12 -2.7 6.4
-9 1 12 3.7 6
-9 1 11 9.5 6.7
-9 1 11 4.8 4.7
-9 1 10 6.4 5.6
-9 1 10 13.6 6.3
-9 1 9 56.49 9.8
-9 1 9 45.8 10.5
-9 1 8 68.69 10.4
-9 1 8 44.2 9.6
-9 1 8 61.39 9.9
9 -1 -8 45.4 11
-9 1 7 23.1 6.2
-9 1 7 33.3 6.6
-9 1 7 35 8.5
9 -1 -7 23.2 8
-9 1 6 184.48 17
-9 1 6 155.58 14.5
-9 1 6 175.38 15.1
9 -1 -6 177.48 20.5
-9 1 5 3.1 2.6
-9 1 5 3.3 4.1
-9 1 5 8.6 3.7
9 -1 -5 1.7 4.1
-9 1 4 67.59 7.4
9 -1 -4 62.59 11.1
-9 1 3 147.79 11.9
-9 1 3 186.28 15.2
9 -1 -3 190.18 20.1
-9 1 2 24.2 6.9
-9 1 2 23.9 4
9 -1 -2 30.6 7.4
9 -1 -2 28.8 7.3
-9 1 1 76.59 10.9
-9 1 1 70.99 7.4
9 -1 -1 72.99 10.4
9 -1 -1 44.1 8.3
-9 1 0 1704.93 102.59
-9 1 0 1432.26 98.79
9 -1 0 1319.57 101.19
9 -1 0 1756.62 102.89
-9 1 -1 49 6.4
-9 1 -1 36.5 7.5
9 -1 1 49.8 8.4
9 -1 1 64.59 10.5
-9 1 -2 26.1 4.9
-9 1 -2 24 6.7
-9 1 -2 24.1 4.5
9 -1 2 25.7 6.4
9 -1 2 24.4 6.3
9 -1 2 22.6 6
-9 1 -3 165.58 13.6
-9 1 -3 163.88 16.8
-9 1 -3 159.88 13.5
9 -1 3 172.78 16.1
9 -1 3 160.38 15.8
9 -1 3 179.68 14
9 -1 3 168.28 14.6
-9 1 -4 80.79 12.4
-9 1 -4 77.99 8.9
9 -1 4 63.89 9.5
9 -1 4 73.09 7
9 -1 4 88.89 11.5
9 -1 4 79.89 9.3
9 -1 4 77.49 9.6
-9 1 -5 2 2.5
9 -1 5 0.8 2.5
9 -1 5 1.3 2.6
9 -1 5 1.9 2.5
9 -1 5 0.4 2.4
9 -1 5 0.9 1.4
-9 1 -6 167.18 14.2
9 -1 6 179.48 15.7
9 -1 6 152.78 17.3
9 -1 7 28.3 7.8
9 -1 7 15.9 6.2
9 -1 8 53.99 10.8
9 -1 8 46.3 9.7
9 -1 9 54.39 11.5
9 -1 9 74.19 12.8
9 -1 10 13.1 6.6
9 -1 11 22.5 9.4
9 -1 12 11.7 8.2
-9 2 12 19.7 8.5
-9 2 11 25.5 9
-9 2 11 28.5 8.7
-9 2 10 15.6 6.5
-9 2 10 24.9 8.3
-9 2 9 115.89 15.8
-9 2 9 118.99 15.3
-9 2 8 14.2 5.8
-9 2 8 9.3 6.1
9 -2 -8 5.2 6.8
-9 2 7 143.39 16.3
-9 2 7 175.18 15.1
-9 2 7 180.28 19.1
9 -2 -7 143.49 19.9
-9 2 6 83.09 10.7
-9 2 6 99.59 13
-9 2 6 81.59 9.8
9 -2 -6 97.29 15.1
-9 2 5 3.9 3.6
-9 2 5 4.1 2.7
9 -2 -5 17.5 7.1
-9 2 4 382.86 26.7
-9 2 4 404.36 27.1
9 -2 -4 388.16 32.3
-9 2 3 219.38 18.6
-9 2 3 209.08 15.1
9 -2 -3 207.08 20.3
-9 2 2 66.29 7
-9 2 2 75.39 10.5
9 -2 -2 38 7.8
9 -2 -2 56.09 9.9
-9 2 1 1033.5 72.19
-9 2 1 1178.38 75.79
9 -2 -1 1248.78 76.09
9 -2 -1 1031.4 75.99
-9 2 0 114.49 10
-9 2 0 157.98 16.8
9 -2 0 120.69 13.1
9 -2 0 74.09 12
-9 2 -1 920.21 63.99
-9 2 -1 903.91 60.69
9 -2 1 992 63.59
-9 2 -2 63.39 10.7
-9 2 -2 64.99 8
9 -2 2 56.69 8.9
9 -2 2 80.09 11.4
-9 2 -3 175.98 14.7
-9 2 -3 159.48 17.2
9 -2 3 203.78 17.9
9 -2 3 190.88 14.8
9 -2 3 191.78 16.2
9 -2 3 186.68 17.2
-9 2 -4 379.56 30.1
-9 2 -4 389.86 26.9
9 -2 4 388.96 27.4
9 -2 4 366.86 28.8
9 -2 4 375.46 27
9 -2 4 358.66 28.5
9 -2 4 368.86 25.7
9 -2 4 378.76 27.8
-9 2 -5 7.2 3.2
9 -2 5 8.9 3.6
9 -2 5 8.3 2.2
9 -2 5 11.1 4.6
9 -2 5 4.4 3.2
9 -2 5 9.5 3.8
9 -2 5 5.8 3.3
-9 2 -6 103.39 11.1
9 -2 6 108.59 12.9
9 -2 6 95.69 13
9 -2 7 149.29 16.9
9 -2 7 149.59 17.6
9 -2 8 10.8 5.5
9 -2 8 6.1 6.1
9 -2 9 138.79 17.3
9 -2 9 94.29 15.8
9 -2 10 45.9 11.5
9 -2 10 20.1 8.1
9 -2 11 21.6 9.2
9 -2 11 27.1 9.9
9 -2 12 20.6 10
9 -2 12 15.1 10.9
-9 3 11 3.7 6.1
-9 3 10 13 6.9
-9 3 10 10.7 5.9
-9 3 9 12.5 6.2
-9 3 9 6 5.1
9 -3 -9 -1.6 5.8
-9 3 8 218.98 21.5
-9 3 8 241.58 21.2
9 -3 -8 240.68 27.2
-9 3 7 2.5 3.6
9 -3 -7 -0.8 4.5
-9 3 6 218.08 18.7
9 -3 -6 217.78 24.7
-9 3 5 20.5 3.9
-9 3 5 25.5 5.5
9 -3 -5 13 7.1
-9 3 4 357.76 25.5
-9 3 4 329.17 25.1
-9 3 4 338.57 22.1
-9 3 4 344.37 23
9 -3 -4 330.67 29.2
-9 3 3 64.59 6.8
-9 3 3 56.79 4.9
-9 3 3 49.99 8.8
9 -3 -3 81.09 13.1
-9 3 2 397.16 28.7
-9 3 2 421.16 32.1
9 -3 -2 416.76 32.3
9 -3 -2 457.45 34
-9 3 1 215.08 18
-9 3 1 273.27 22
9 -3 -1 219.78 21.7
9 -3 -1 267.07 22.1
-9 3 0 14.5 3.7
-9 3 0 39.1 9.9
9 -3 0 16.4 6
9 -3 0 7.1 3.6
-9 3 -1 202.68 15.4
-9 3 -1 235.38 19.2
9 -3 1 213.78 18.3
9 -3 1 140.59 16.5
-9 3 -2 525.05 37.5
-9 3 -2 400.66 28.7
9 -3 2 389.66 28.2
9 -3 2 381.86 31.2
9 -3 2 382.46 30.3
-9 3 -3 50.79 7.1
-9 3 -3 77.69 12.3
9 -3 3 59.89 10.3
9 -3 3 51.59 7.5
9 -3 3 54.99 8.7
-9 3 -4 299.57 27.5
-9 3 -4 330.07 24.4
9 -3 4 363.46 25.3
9 -3 4 327.77 24
9 -3 4 347.97 25.6
9 -3 4 309.07 26.2
9 -3 4 352.96 27.3
-9 3 -5 18.1 4.6
9 -3 5 19.9 3.5
9 -3 5 23.8 5.9
9 -3 5 21.9 5.5
9 -3 5 16.9 5
9 -3 5 20.8 4.9
9 -3 5 20.5 5.7
-9 3 -6 183.78 16.1
9 -3 6 189.98 15.4
9 -3 6 198.18 17
9 -3 6 207.48 18.9
9 -3 7 -4.6 3.7
9 -3 7 1.5 3.5
9 -3 8 228.88 20.8
9 -3 8 212.68 23.8
9 -3 9 8.7 5.8
9 -3 9 6.7 5.8
9 -3 10 2.5 6.1
9 -3 10 14.9 7.2
9 -3 11 5.1 6.5
-9 4 11 10 6.3
-9 4 10 8.5 6
-9 4 10 10 6.8
-9 4 9 53.69 10.4
-9 4 9 43.7 10.1
9 -4 -9 48.1 12.9
-9 4 8 83.79 12.4
9 -4 -8 82.89 15.8
-9 4 7 58.99 9.6
9 -4 -7 54.39 12.5
-9 4 6 43.2 7.9
9 -4 -6 39.6 10.8
-9 4 5 76.89 10.1
9 -4 -5 84.39 14.7
-9 4 4 141.59 14.2
-9 4 4 161.38 14
-9 4 4 161.68 11.4
9 -4 -4 149.59 19.6
-9 4 3 12.9 5.3
-9 4 3 6.5 2.7
9 -4 -3 10.2 5.7
-9 4 2 103.39 14.1
-9 4 2 79.29 8.8
9 -4 -2 75.29 13.1
9 -4 -2 77.09 12.1
-9 4 1 44.2 7.7
-9 4 1 48.2 6.7
9 -4 -1 52.09 10
9 -4 -1 40.3 8.3
-9 4 0 12.4 5.8
-9 4 0 5.8 2.8
9 -4 0 12 5.3
9 -4 0 2.2 4.1
-9 4 -1 45.9 6.8
-9 4 -1 59.69 10.9
9 -4 1 39.7 8.9
9 -4 1 47.2 5.9
9 -4 1 51.99 9.3
-9 4 -2 96.39 14.7
-9 4 -2 64.39 8.9
9 -4 2 84.79 9.3
9 -4 2 100.29 13.6
9 -4 2 86.29 12.5
-9 4 -3 22.7 4.9
-9 4 -3 7.2 5
9 -4 3 8.8 3.8
9 -4 3 6.6 4.4
9 -4 3 11.7 4.7
-9 4 -4 160.78 14
-9 4 -4 154.88 20.4
9 -4 4 167.38 16.3
9 -4 4 145.09 15.9
9 -4 4 162.28 13.4
9 -4 4 152.78 14.3
-9 4 -5 72.29 9.2
9 -4 5 77.39 9.2
9 -4 5 58.39 9.9
9 -4 5 69.89 10.8
9 -4 5 72.09 10.4
-9 4 -6 42.9 7.4
9 -4 6 46.3 7.7
9 -4 6 46.9 7.3
9 -4 6 35.5 6.5
9 -4 6 47.6 9.5
9 -4 7 65.59 11.8
9 -4 7 59.59 9.8
9 -4 8 57.59 12.3
9 -4 8 82.69 12.2
9 -4 9 32.3 8.7
9 -4 9 38.5 10.5
9 -4 10 6.2 6.7
9 -4 11 13 8.2
-9 5 11 16.1 7.9
-9 5 10 103.19 15.6
-9 5 10 87.29 14.9
-9 5 9 22.2 7.4
9 -5 -9 11.3 8.8
-9 5 8 237.98 21.7
9 -5 -8 229.98 28.7
-9 5 7 -3 3.5
9 -5 -7 5.4 6.4
-9 5 6 411.76 30.2
9 -5 -6 349.87 33.8
-9 5 5 40.8 7.6
9 -5 -5 32.4 10.1
-9 5 4 98.59 11.5
-9 5 4 102.29 8.5
-9 5 4 89.49 12.2
-9 5 4 88.39 10.5
9 -5 -4 80.19 14.5
-9 5 3 25.3 7.6
-9 5 3 19.8 4.3
9 -5 -3 17.4 7.5
-9 5 2 91.59 9.9
-9 5 2 132.19 16.9
9 -5 -2 59.79 10.8
9 -5 -2 117.89 16.3
-9 5 1 108.09 11.1
-9 5 1 70.89 12
9 -5 -1 81.09 13.6
9 -5 -1 117.59 19.6
-9 5 0 71.99 12.6
-9 5 0 53.29 8.1
9 -5 0 117.19 19.6
9 -5 0 78.29 12.7
-9 5 -1 98.79 15.1
-9 5 -1 90.39 10.6
9 -5 1 90.89 8.2
9 -5 1 67.99 12.6
9 -5 1 80.29 12.7
-9 5 -2 76.99 12.6
-9 5 -2 105.19 11.5
9 -5 2 83.69 9.6
9 -5 2 90.29 13.6
9 -5 2 104.99 13.9
-9 5 -3 15.6 7.2
-9 5 -3 20.4 5
9 -5 3 24.5 6.4
9 -5 3 10.8 5.3
9 -5 3 19.2 4.7
-9 5 -4 94.49 11.3
9 -5 4 97.29 9.4
9 -5 4 103.39 12.2
9 -5 4 86.39 11.8
9 -5 4 99.89 14.3
-9 5 -5 40.1 7.1
9 -5 5 40.3 6.7
9 -5 5 44 8.7
9 -5 5 58.59 9.7
-9 5 -6 383.66 29.2
9 -5 6 373.06 28.8
9 -5 6 390.36 29.7
9 -5 6 403.66 29.8
9 -5 6 406.26 31.9
9 -5 7 2 3.8
9 -5 7 5.7 5.3
9 -5 8 247.48 24.3
9 -5 8 248.88 21.9
9 -5 9 -0.7 5.4
9 -5 10 115.39 18
9 -5 11 7.3 7.3
-9 6 11 -5.8 5.3
-9 6 10 0.7 6.2
-9 6 10 4.1 6.1
-9 6 9 6.2 6.2
9 -6 -9 7 9.2
-9 6 8 8.9 5.7
9 -6 -8 2.7 7.7
-9 6 7 61.69 11.1
9 -6 -7 96.69 18.2
-9 6 6 156.68 17.6
9 -6 -6 182.88 24.6
-9 6 5 15.4 4.7
-9 6 5 10.6 4.8
-9 6 5 9.9 5.3
9 -6 -5 10.2 6.9
-9 6 4 170.18 12.9
-9 6 4 163.28 14.6
-9 6 4 147.19 15.3
-9 6 4 144.49 16.2
9 -6 -4 148.19 21.3
-9 6 3 250.97 19.2
-9 6 3 251.67 23.2
9 -6 -3 222.08 26.7
-9 6 2 41.5 6.7
-9 6 2 44.8 10
9 -6 -2 21.9 8
9 -6 -2 28.9 9
-9 6 1 54.39 7.9
-9 6 1 66.29 12.5
9 -6 -1 56.39 11.3
9 -6 -1 37.8 10
-9 6 0 1.1 2.4
-9 6 0 6.8 5.2
9 -6 0 3.5 2.1
9 -6 0 7.2 6.2
9 -6 0 3.7 5
-9 6 -1 38.4 6.7
-9 6 -1 28.3 7.6
9 -6 1 46.5 10.3
9 -6 1 51.89 6.2
9 -6 1 64.49 11
-9 6 -2 15.5 6
-9 6 -2 25.5 5.6
9 -6 2 33.9 8.6
9 -6 2 31.9 5.6
9 -6 2 31.1 8.5
-9 6 -3 269.77 19.7
9 -6 3 209.48 19.9
9 -6 3 218.08 18.6
9 -6 3 218.18 21.7
-9 6 -4 136.29 14.5
9 -6 4 148.79 16
9 -6 4 123.79 11.5
9 -6 4 134.59 15.6
9 -6 4 148.39 14.5
-9 6 -5 8.9 4.6
9 -6 5 13.2 3.9
9 -6 5 10.9 5
9 -6 5 18 6
-9 6 -6 198.58 17.4
9 -6 6 170.08 17.4
9 -6 6 175.98 15.8
9 -6 6 170.48 19.5
9 -6 6 192.48 17.8
9 -6 7 57.19 11.3
9 -6 8 7 6.4
9 -6 9 16.7 7.9
9 -6 10 1.6 6.6
9 -6 11 13.3 8.9
-9 7 10 24.2 8.8
9 -7 -10 55.99 16.2
-9 7 9 19.5 8.1
9 -7 -9 17.7 11.3
-9 7 8 75.09 12.7
9 -7 -8 84.99 18
-9 7 7 63.19 11.6
9 -7 -7 63.79 16.7
-9 7 6 83.99 12.3
9 -7 -6 94.99 18.1
-9 7 5 47.2 8.8
-9 7 5 51.09 9.2
-9 7 5 54.29 9.9
9 -7 -5 65.09 14.9
-9 7 4 168.58 17
-9 7 4 166.58 15.4
-9 7 4 138.29 13.3
-9 7 4 168.78 18
9 -7 -4 173.38 23.3
-9 7 3 151.28 13.9
-9 7 3 178.58 18.8
9 -7 -3 108.99 19.8
-9 7 2 44.8 10.1
-9 7 2 29.9 6.2
9 -7 -2 27.3 9.4
-9 7 1 51.69 11.7
-9 7 1 51.99 8.4
9 -7 -1 34.1 10
-9 7 0 271.17 26.7
-9 7 0 296.67 22.5
9 -7 0 270.77 25.9
9 -7 0 257.97 18.9
-9 7 -1 45 7.9
9 -7 1 42.2 6.2
9 -7 1 45.4 11.1
-9 7 -2 29.8 6.4
9 -7 2 28.8 7.9
9 -7 2 21.8 5.1
-9 7 -3 139.09 14.8
9 -7 3 116.89 13.6
9 -7 3 153.88 17.8
-9 7 -4 176.08 16.1
9 -7 4 169.58 16.2
9 -7 4 147.79 17.6
9 -7 4 156.18 17.7
-9 7 -5 38.4 7.9
9 -7 5 29.3 5.9
9 -7 5 40.5 8.7
9 -7 5 52.89 11
-9 7 -6 97.59 12.9
9 -7 6 82.79 13.5
9 -7 6 75.89 12.1
9 -7 7 47.6 10.4
9 -7 7 49.8 8.4
9 -7 7 56.79 8.4
9 -7 8 61.79 12.7
9 -7 9 10.2 7.7
9 -7 10 41 12.5
9 -8 -10 -3.2 10.3
-9 8 9 24.2 8.4
9 -8 -9 53.99 16.6
-9 8 8 15 6.7
9 -8 -8 9.8 11.4
-9 8 7 41.2 9.2
9 -8 -7 45.9 14.8
-9 8 6 42.5 9.6
-9 8 6 73.89 10.3
9 -8 -6 85.19 17.8
-9 8 5 80.49 12
-9 8 5 92.19 13.7
-9 8 5 94.89 14.7
9 -8 -5 90.99 18.7
-9 8 4 32.5 8.7
-9 8 4 11 5.1
-9 8 4 23.7 5.5
-9 8 4 17.9 8
9 -8 -4 25.4 10.5
-9 8 3 10.5 4.2
-9 8 3 10.6 6
9 -8 -3 8 7.8
-9 8 2 52.89 8.2
-9 8 2 41.3 10.7
9 -8 -2 56.69 13.3
-9 8 1 178.38 21.3
-9 8 1 171.18 16
9 -8 -1 138.89 21.5
-9 8 0 20.6 5.6
9 -8 0 10.7 6.4
-9 8 -1 157.58 16.9
9 -8 1 168.88 13.8
9 -8 1 136.69 19.9
-9 8 -2 56.09 9.1
9 -8 2 51.79 11.8
9 -8 2 42.1 7.6
-9 8 -3 9.9 4.8
9 -8 3 4.2 4.3
9 -8 3 27.5 8.4
-9 8 -4 15.9 5.6
9 -8 4 11.8 5.8
-9 8 -5 76.79 12
9 -8 5 65.59 16.5
9 -8 5 62.59 11
-9 8 -6 45 9.4
9 -8 6 49.2 10.8
9 -8 6 61.29 11.1
9 -8 7 36.5 8
9 -8 7 53.49 11.9
9 -8 7 44.1 8.1
9 -8 8 10.2 7.5
9 -8 9 25.3 9.9
9 -8 10 9 8.5
-9 9 9 -11.7 4.6
9 -9 -9 0.6 10
-9 9 8 40.2 9.8
9 -9 -8 45.3 16.3
-9 9 7 26.7 7.8
9 -9 -7 18.1 12.1
-9 9 6 159.18 18
-9 9 6 161.78 15.8
-9 9 6 165.18 17.2
9 -9 -6 139.99 24.9
-9 9 5 10.6 6.7
-9 9 5 6.2 4.4
-9 9 5 4.4 5.2
9 -9 -5 3.7 7.5
-9 9 4 291.07 29.2
-9 9 4 344.67 24.9
9 -9 -4 287.87 35.4
-9 9 3 64.39 9.9
-9 9 3 62.99 13.6
9 -9 -3 58.49 15.3
-9 9 2 160.98 17.3
-9 9 2 144.69 22.1
9 -9 -2 163.98 23.5
-9 9 1 21.9 6.6
9 -9 -1 30.6 10.2
-9 9 0 339.07 27.7
9 -9 0 354.46 33.1
-9 9 -1 31 6.9
9 -9 1 6.8 6.2
-9 9 -2 198.58 18
9 -9 2 170.68 15.9
9 -9 2 165.28 22.5
-9 9 -3 74.59 11.4
9 -9 3 53.29 12.1
9 -9 3 46.9 9.1
-9 9 -4 286.17 24.6
9 -9 4 279.67 24.4
-9 9 -5 11.7 5.9
9 -9 5 5.3 5.8
9 -9 6 202.18 23.4
9 -9 7 18.2 6.5
9 -9 7 4.8 6.6
9 -9 8 31.9 10.9
9 -9 9 0.2 6.4
-9 10 9 22.7 9
9 -10 -9 41.6 19
-9 10 8 10.6 7
9 -10 -8 9.1 11.5
-9 10 7 66.39 12.1
9 -10 -7 87.39 20.9
-9 10 6 1.4 5.2
-9 10 6 -1.5 3.8
9 -10 -6 22.5 10.9
-9 10 5 87.49 12.7
-9 10 5 59.39 13.3
9 -10 -5 64.99 17.1
-9 10 4 3.9 4.3
-9 10 4 -2.7 4.8
9 -10 -4 1.9 8.2
-9 10 3 84.19 16.5
-9 10 3 88.89 12.5
-9 10 2 13.6 5.5
-9 10 1 6.7 4.8
-9 10 0 245.88 22
9 -10 0 240.78 29.6
-9 10 -1 9.1 5.6
9 -10 1 0.2 6.6
-9 10 -2 -0.7 4.6
9 -10 2 5.6 6.9
-9 10 -3 93.09 13.6
9 -10 3 53.69 13.4
-9 10 -4 -4.5 3.8
9 -10 4 6.5 6
-9 10 -5 76.09 12.9
9 -10 5 69.19 13
-9 10 -6 8.8 6.1
9 -10 6 3.5 6.8
9 -10 7 48.4 10.5
9 -10 7 77.09 14.7
9 -10 8 -2.4 6.5
9 -10 9 27 11
-9 11 8 17.3 8.5
9 -11 -8 13.2 14.4
-9 11 7 0.6 5.8
9 -11 -7 2.3 11.2
-9 11 6 0.4 4.7
-9 11 6 -1.7 4.7
9 -11 -6 13.8 11.3
-9 11 5 1.8 5.5
-9 11 5 -0.1 6.8
9 -11 -5 -5.1 9
-9 11 4 10.2 5.4
-9 11 4 10.2 7.5
-9 11 3 65.99 11
-9 11 2 6.8 5.5
-9 11 1 29 8
-9 11 0 8.4 5.3
-9 11 -1 27.2 7.5
9 -11 1 21.8 11.2
-9 11 -2 1.7 4.6
9 -11 2 5.5 7
-9 11 -3 35.7 9.3
9 -11 3 62.29 14.3
-9 11 -4 14.5 6.9
-9 11 -5 -3.2 4.6
9 -11 5 1.9 6.6
-9 11 -6 4 5.6
9 -11 6 3.7 7.2
9 -11 7 10.9 9.1
9 -11 8 14.8 10.2
-9 12 7 31.4 10.4
9 -12 -7 19 14.1
-9 12 6 2.2 6.2
9 -12 -6 9.5 12.9
9 -12 -5 24.4 14.4
-9 12 4 -1 4.3
-9 12 3 20.3 7.1
-9 12 2 36.4 9.4
-9 12 1 52.29 10.7
-9 12 0 52.09 10.5
-9 12 -1 35.4 8.8
-9 12 -2 24.5 8.3
9 -12 2 45.3 13.6
-9 12 -3 26.9 8.7
-9 12 -4 5.5 5.7
-9 12 -5 16.2 7.8
-9 12 -6 0.9 5.7
9 -12 6 -0.8 11.6
9 -12 7 23.2 9.8
9 -13 -6 -4.3 10.3
9 -13 -5 7.3 13
-9 13 4 22.7 7.6
-9 13 3 11.9 6.8
-9 13 2 -0.8 4.8
-9 13 1 22.7 7.4
-9 13 0 -5.2 4.5
-9 13 -1 44.8 10.5
-9 13 -2 -1.3 4.4
9 -13 2 6.4 8.1
-9 13 -3 3.8 6.7
-9 13 -4 15.8 7.8
-9 13 -5 8.5 7.3
-9 13 -6 5.1 6.7
-9 14 4 24.8 9
-9 14 3 51.69 11.5
-9 14 2 2.1 6
-9 14 1 35.1 9.5
-9 14 0 6 6
-9 14 -1 33.1 9.8
-9 14 -2 -3.9 5.3
9 -14 2 -2.4 6.9
-9 14 -3 27.1 9.3
-9 14 -4 22.4 9.3
-9 15 1 0.4 6.5
-9 15 0 -1.9 5.6
-9 15 -1 15.3 8.7
9 -15 1 2.5 9.5
-10 -14 4 59.19 16
10 14 -4 82.49 15.7
-10 -14 3 10.2 8.6
10 14 -3 23.1 9.8
-10 -14 2 -3.9 7.1
-10 -14 2 1.4 4.4
10 14 -2 6.7 7.7
-10 -14 1 29.6 8.2
10 14 -1 40.5 10.9
-10 -14 0 4.7 5.1
10 14 0 -0.5 6
-10 -14 -1 24.8 8.8
10 14 1 30.4 8.9
-10 -14 -2 6.6 6.7
10 14 2 10.8 6.9
-10 -14 -3 9.9 7.3
10 14 3 -2.1 5.9
-10 -14 -4 66.19 13.2
10 14 4 81.89 14
-10 -13 5 -5.7 4.7
-10 -13 5 7.3 8.2
10 13 -5 3.9 7.5
-10 -13 4 -3.8 6.8
10 13 -4 0.3 7.5
10 13 -4 2.2 6.9
-10 -13 3 17.3 9.3
10 13 -3 11.2 7.8
10 13 -3 12.3 8.8
-10 -13 2 16.2 10
-10 -13 2 15.9 6.5
10 13 -2 5.8 6.9
10 13 -2 20.2 9.7
-10 -13 1 8.4 5.1
10 13 -1 5.6 5.6
10 13 -1 8.8 8.5
-10 -13 0 -2.6 3.8
10 13 0 8 6.1
10 13 0 1.1 7.5
-10 -13 -1 -1.3 4.6
10 13 1 2.8 5.3
-10 -13 -2 15.6 6.8
10 13 2 11 6.3
-10 -13 -3 17 7.1
10 13 3 4.8 6.4
-10 -13 -4 2.7 5.4
10 13 4 3.6 5.7
-10 -13 -5 8.4 6.8
10 13 5 5.5 5.6
-10 -12 7 -5.6 6.3
-10 -12 6 9.4 8.4
-10 -12 6 23.8 12
-10 -12 5 5.9 7.7
10 12 -5 -6.6 6.2
-10 -12 4 26.4 10.9
10 12 -4 32 11
10 12 -4 58.19 11.8
-10 -12 3 4.1 3.9
-10 -12 3 2 5.9
10 12 -3 6.8 6.4
10 12 -3 2.7 7.7
-10 -12 2 65.79 10.3
-10 -12 2 64.99 14.1
10 12 -2 30.1 9.6
10 12 -2 86.39 17.1
-10 -12 1 84.29 12.6
10 12 -1 106.19 15.8
10 12 -1 74.19 16
-10 -12 0 21.7 6.8
10 12 0 18.2 8.9
10 12 0 11.6 7.1
-10 -12 -1 61.69 11.2
10 12 1 67.79 12.8
10 12 1 74.49 16
-10 -12 -2 34.7 8.7
10 12 2 63.49 11.1
10 12 2 80.89 16.9
-10 -12 -3 6.1 5.5
10 12 3 -0.4 4.8
-10 -12 -4 34.6 9.1
10 12 4 48.7 9.9
-10 -12 -5 3.8 5.5
10 12 5 10.6 7.4
10 12 5 1.2 4.8
-10 -12 -6 26.6 8.7
10 12 6 24 9.4
10 12 7 11.2 8.6
-10 -11 8 10.9 8.5
-10 -11 7 2.8 6.6
-10 -11 6 2.9 5.8
-10 -11 6 14.5 9.5
-10 -11 5 -2.9 6.9
10 11 -5 5 6.4
10 11 -5 0.3 7.5
-10 -11 4 4.9 6.3
10 11 -4 13.6 7.6
10 11 -4 21.6 9.1
-10 -11 3 21.2 8.1
-10 -11 3 7.7 4.3
10 11 -3 15.4 6.9
10 11 -3 19.7 9
-10 -11 2 15.6 8.9
-10 -11 2 55.69 8.9
10 11 -2 32.4 8.7
10 11 -2 18.5 9
-10 -11 1 12.6 5.2
10 11 -1 13.1 6.4
10 11 -1 17.2 8.8
-10 -11 0 54.19 9.7
10 11 0 57.29 13.8
10 11 0 63.19 11.2
-10 -11 -1 22.4 7.3
10 11 1 18.3 8.5
10 11 1 13.2 5.8
-10 -11 -2 44.1 8.9
10 11 2 17.7 6.9
10 11 2 28.6 10.4
-10 -11 -3 14.2 6.6
10 11 3 9.5 7.6
10 11 3 26.1 7.5
-10 -11 -4 7.2 5.8
10 11 4 11.8 6.2
10 11 4 7 5.3
-10 -11 -5 3.5 5
10 11 5 6.4 6.3
10 11 5 -2.8 4
-10 -11 -6 19.5 7.7
10 11 6 10.8 7
10 11 7 -2.2 5.8
10 11 8 6.5 8
-10 -10 8 16.5 9.5
-10 -10 7 17 8.4
-10 -10 6 19.3 10.4
-10 -10 6 20 8.3
-10 -10 5 12 7.5
10 10 -5 5.2 6.2
10 10 -5 8.1 6.5
-10 -10 4 78.19 15.3
10 10 -4 93.39 16
10 10 -4 130.69 16.1
-10 -10 3 33.1 6.6
-10 -10 3 20.6 8.2
10 10 -3 17 7.7
10 10 -3 32.1 8.6
-10 -10 2 90.99 11.7
-10 -10 2 77.29 14.9
10 10 -2 93.69 16.1
10 10 -2 108.99 14.9
-10 -10 1 24.7 6.1
10 10 -1 9.3 7.2
10 10 -1 5.5 4.8
-10 -10 0 71.79 10.8
10 10 0 75.49 11.9
10 10 0 100.59 17
-10 -10 -1 8.6 5.3
10 10 1 6.8 6.5
10 10 1 5 4.8
-10 -10 -2 99.49 13
10 10 2 92.39 16.3
10 10 2 96.69 13.6
10 10 2 101.99 13.3
-10 -10 -3 30.4 7.9
10 10 3 31.1 10
10 10 3 25 7.1
10 10 3 23.1 7
-10 -10 -4 111.59 14.7
10 10 4 119.99 14.9
10 10 4 106.19 15
10 10 4 133.59 21.2
-10 -10 -5 1.2 4.9
10 10 5 16.4 7.3
10 10 5 3.2 5.4
10 10 5 6.8 4.7
-10 -10 -6 24.1 7.5
10 10 6 35.2 9.8
10 10 6 16.4 7.8
10 10 7 18.9 9
10 10 8 15.3 8.6
-10 -9 9 0.7 7.6
-10 -9 8 3.5 7.7
-10 -9 7 39.7 10.4
-10 -9 6 11.5 6.2
-10 -9 6 12.8 9.4
-10 -9 5 171.18 18.8
-10 -9 5 141.59 22.3
10 9 -5 178.48 21.5
10 9 -5 179.18 19.5
-10 -9 4 4 6.8
10 9 -4 8.2 5.5
10 9 -4 5.7 6.4
-10 -9 3 112.59 12
-10 -9 3 75.89 14.9
10 9 -3 82.09 12.7
10 9 -3 101.19 16.4
-10 -9 2 123.99 17.4
-10 -9 2 108.49 12.5
10 9 -2 136.39 15.8
10 9 -2 103.89 17.1
-10 -9 1 18.5 5.3
10 9 -1 39.3 8.1
10 9 -1 20.6 8.5
-10 -9 0 167.98 15.1
10 9 0 146.29 20.1
10 9 0 126.39 16
-10 -9 -1 28.8 6.6
10 9 1 13 7.2
10 9 1 15 5.4
10 9 1 29.2 6.3
-10 -9 -2 111.19 14.2
10 9 2 137.29 15
10 9 2 100.99 17.2
10 9 2 133.39 15.5
-10 -9 -3 87.19 12
10 9 3 73.79 11.7
10 9 3 77.19 15.1
-10 -9 -4 2.9 4.4
10 9 4 3.4 5.1
10 9 4 7.5 4.3
10 9 4 3.5 5.8
10 9 4 15.7 5.8
-10 -9 -5 153.28 17.8
10 9 5 203.68 16.9
10 9 5 154.98 19.6
10 9 5 171.78 20.3
10 9 5 216.48 26.1
-10 -9 -6 14.7 6.5
10 9 6 16.4 6.9
10 9 6 14.7 7
10 9 7 53.29 12.1
10 9 7 43.1 10.2
10 9 8 12.5 7.6
10 9 9 4.1 7.5
-10 -8 10 18.4 9.8
-10 -8 9 63.09 15.7
-10 -8 8 10.6 7.4
-10 -8 7 72.09 13.4
-10 -8 6 -0.6 4
-10 -8 5 49.2 13
10 8 -5 29.6 7.8
10 8 -5 27.5 8.5
-10 -8 4 20.1 4.5
-10 -8 4 28.2 8.9
-10 -8 4 23.4 7.7
10 8 -4 28.5 7.1
10 8 -4 25.3 8.2
-10 -8 3 63.59 13
-10 -8 3 96.49 10.6
10 8 -3 117.39 14
10 8 -3 80.89 13.9
-10 -8 2 5.2 3.3
-10 -8 2 -3.2 4.2
10 8 -2 3.8 4
10 8 -2 -0.4 4
-10 -8 1 29.9 8.9
-10 -8 1 33.8 6.5
10 8 -1 30.2 8.4
10 8 -1 58.19 9.4
-10 -8 0 124.09 13.8
10 8 0 127.89 11.8
10 8 0 164.68 19.9
10 8 0 110.89 14.1
-10 -8 -1 40 7.5
10 8 1 45.6 7.4
10 8 1 45.2 10.8
10 8 1 37.6 7.5
-10 -8 -2 4.6 4
10 8 2 13.1 6.6
10 8 2 9.9 4.4
10 8 2 1.5 3.4
-10 -8 -3 81.89 11.6
10 8 3 100.89 16.3
10 8 3 119.39 13.8
10 8 3 85.29 16.1
10 8 3 109.99 12.8
-10 -8 -4 12 5.5
10 8 4 27.4 6.4
10 8 4 36.6 10.5
10 8 4 17.8 6.4
10 8 4 24.8 7.5
-10 -8 -5 38.4 7.9
10 8 5 43.4 7.5
10 8 5 30.5 8.2
10 8 5 26.6 8.5
10 8 5 51.39 12.2
-10 -8 -6 -3.2 4
10 8 6 -6.1 4.2
10 8 6 -0.4 4.3
10 8 6 -1.4 5.7
10 8 7 71.19 11.6
10 8 7 59.19 11
10 8 7 54.09 11.9
10 8 8 15.4 8.2
10 8 9 37.7 11.5
10 8 10 32.8 11.8
-10 -7 10 9.1 7.5
-10 -7 9 73.99 14.4
-10 -7 8 40.1 11.1
-10 -7 7 25.2 8.5
-10 -7 6 80.59 13.3
10 7 -6 62.99 12.1
-10 -7 5 55.99 13.1
10 7 -5 67.69 12.3
10 7 -5 54.49 9.3
-10 -7 4 32.5 5.3
-10 -7 4 34.2 8.8
-10 -7 4 35.3 9.6
10 7 -4 56.39 10.9
10 7 -4 35.4 7.5
-10 -7 3 62.29 7.6
-10 -7 3 54.09 11.1
-10 -7 3 41.7 9.5
10 7 -3 47.7 10.4
10 7 -3 50.39 8.6
-10 -7 2 60.49 11.8
-10 -7 2 84.69 15.1
-10 -7 2 51.19 11.1
-10 -7 2 77.19 9
10 7 -2 82.89 10.6
10 7 -2 65.39 11.6
-10 -7 1 64.69 13.2
-10 -7 1 38.6 6.8
-10 -7 1 46.7 9.8
10 7 -1 47.5 6.2
10 7 -1 37.1 7.6
10 7 -1 42 9.5
-10 -7 0 231.08 23.7
-10 -7 0 249.38 19.3
10 7 0 235.38 22.2
10 7 0 210.88 19.4
10 7 0 231.98 17.9
-10 -7 -1 47 7.5
10 7 1 36.2 9
10 7 1 38.7 6.5
10 7 1 56.29 15
10 7 1 35.5 7
-10 -7 -2 74.39 9.7
10 7 2 68.79 9.5
10 7 2 54.79 8.8
10 7 2 53.79 10.8
10 7 2 67.69 12.2
-10 -7 -3 54.49 8.8
10 7 3 56.99 12.1
10 7 3 46.5 11
10 7 3 57.19 9
10 7 3 69.79 9.7
-10 -7 -4 44.3 8.2
10 7 4 35.3 9.9
10 7 4 34.1 8.2
10 7 4 34.9 9.6
10 7 4 43.4 7.5
-10 -7 -5 50.49 9
10 7 5 55.09 12.3
10 7 5 57.69 8
10 7 5 46 11.1
10 7 5 46 9.4
10 7 5 44.5 9.5
-10 -7 -6 56.29 9.7
10 7 6 66.09 12
10 7 6 52.89 10.2
10 7 6 79.59 14.9
10 7 6 53.39 10.6
10 7 7 12.1 4.9
10 7 7 16.5 5.9
10 7 7 25.5 8.8
10 7 8 49.3 11.6
10 7 9 45.1 11.9
10 7 10 16.3 9
-10 -6 10 -2 5
-10 -6 9 11.4 8
-10 -6 8 0.3 6
-10 -6 7 70.39 13
-10 -6 6 24.6 7.4
10 6 -6 34.8 8.5
-10 -6 5 195.28 25
10 6 -5 214.48 18.5
10 6 -5 242.98 21.6
-10 -6 4 42.2 5.7
-10 -6 4 48.9 11.2
10 6 -4 42.9 7.6
10 6 -4 49.99 10
-10 -6 3 30.1 7.7
-10 -6 3 34.3 8.8
-10 -6 3 43.3 5.9
10 6 -3 22.3 5.6
10 6 -3 30.8 8.3
-10 -6 2 9.1 5.4
-10 -6 2 17.8 6.7
-10 -6 2 25.1 5
-10 -6 2 19.5 6.8
10 6 -2 19.9 3.7
10 6 -2 14 5.4
10 6 -2 29.2 6.1
-10 -6 1 75.49 12.3
-10 -6 1 77.79 14.6
-10 -6 1 99.59 15.7
-10 -6 1 63.19 8.6
10 6 -1 77.79 14.5
10 6 -1 82.19 10.6
10 6 -1 63.19 12.2
10 6 -1 75.99 8.1
-10 -6 0 163.08 19.3
-10 -6 0 135.39 12.9
-10 -6 0 157.88 21.4
10 6 0 127.19 17
10 6 0 145.79 12.3
10 6 0 129.39 14.5
10 6 0 184.58 30
10 6 0 136.89 19.2
-10 -6 -1 90.19 15.5
-10 -6 -1 78.09 9.9
10 6 1 68.09 11.8
10 6 1 99.39 16.1
10 6 1 50.89 13.4
10 6 1 84.29 9.6
10 6 1 69.59 9.6
-10 -6 -2 32 6.8
10 6 2 15.6 4.8
10 6 2 32.1 6.2
10 6 2 16.1 7.2
10 6 2 14.9 6.4
10 6 2 16.8 7
-10 -6 -3 23.8 6.1
10 6 3 33.4 6.7
10 6 3 32 9.3
10 6 3 37.7 6.7
10 6 3 23.1 7.5
10 6 3 29.6 8.4
-10 -6 -4 43.1 8
10 6 4 38.8 10.5
10 6 4 43.9 8
10 6 4 37.6 6.6
10 6 4 27.6 8.1
10 6 4 32 8.5
-10 -6 -5 199.68 18.4
10 6 5 193.88 20
10 6 5 225.28 20.2
10 6 5 202.08 21.2
10 6 5 222.88 17
10 6 5 208.08 24.2
-10 -6 -6 40.3 7.9
10 6 6 46 10.8
10 6 6 36.3 9.3
10 6 6 40.5 9.1
10 6 6 32.1 7.5
10 6 7 37.6 7.1
10 6 7 60.09 11.4
10 6 7 50.69 7.9
10 6 8 -3 4.6
10 6 9 3.2 6.5
10 6 10 12.3 7.9
-10 -5 11 -2.6 4.3
-10 -5 10 -3.9 5.2
-10 -5 9 34.9 11.2
-10 -5 8 32.4 9.5
-10 -5 8 19.6 7
-10 -5 7 18 6.8
-10 -5 7 19.5 6.9
-10 -5 6 51.09 9.6
-10 -5 6 31.7 7.9
10 5 -6 37.7 9
-10 -5 5 -1.1 3.5
10 5 -5 8.7 4.1
10 5 -5 -1.3 3.9
-10 -5 4 15.7 3
-10 -5 4 9.1 4.7
-10 -5 4 15.6 8
10 5 -4 5.6 3.8
10 5 -4 2.7 4.4
-10 -5 3 17.4 5.6
-10 -5 3 18 6.8
-10 -5 3 18.7 5.3
-10 -5 3 20.8 4.2
10 5 -3 23.4 5.2
10 5 -3 32.4 9.8
10 5 -3 22.7 6.9
-10 -5 2 11.1 5.2
-10 -5 2 13 6.1
-10 -5 2 8.2 3.1
-10 -5 2 16.2 6.5
10 5 -2 6.8 5.9
10 5 -2 7 4.8
10 5 -2 4 4.3
10 5 -2 11 4
-10 -5 1 18.2 5.6
-10 -5 1 23.3 7
-10 -5 1 24.5 6.3
-10 -5 1 36.4 6
10 5 -1 28.7 7.4
10 5 -1 20.5 7.9
10 5 -1 30.5 5.9
10 5 -1 27.3 4.4
10 5 -1 20.3 7
-10 -5 0 9.8 6.1
-10 -5 0 4.1 3.2
-10 -5 0 3.9 4.2
10 5 0 7.8 5.8
10 5 0 1.2 2.2
10 5 0 4.1 6.4
10 5 0 4.3 4.1
10 5 0 4 2.8
-10 -5 -1 34.3 6
-10 -5 -1 43.6 9.5
-10 -5 -1 26.5 8.9
10 5 1 26.8 5.9
10 5 1 30.9 7.9
10 5 1 25.7 10.6
10 5 1 34.6 8.2
10 5 1 26.6 5.1
-10 -5 -2 13.6 7.2
-10 -5 -2 17.9 5.2
-10 -5 -2 8.2 5.9
10 5 2 11.2 5.4
10 5 2 1.8 5.7
10 5 2 19.4 4.6
10 5 2 9.2 3.6
10 5 2 9.6 5.3
-10 -5 -3 31 6.2
-10 -5 -3 18 6.9
10 5 3 28.1 8.1
10 5 3 21.5 5.5
10 5 3 22.8 6.8
10 5 3 18.8 4.7
10 5 3 19.9 7.3
-10 -5 -4 8.4 4.6
10 5 4 17.2 7
10 5 4 14.4 5.5
10 5 4 6.5 3.2
10 5 4 13.8 5.6
10 5 4 14.3 5.8
-10 -5 -5 -1.1 3.5
10 5 5 1.4 3.6
10 5 5 1.5 3.5
10 5 5 -1.5 4.1
10 5 5 -0.4 4.2
10 5 5 -0.8 2.1
-10 -5 -6 21.8 6.1
10 5 6 24.9 7.5
10 5 6 24.4 6.1
10 5 6 22.9 7.8
10 5 6 26.4 6.9
10 5 7 21.6 8.1
10 5 7 24.1 8.1
10 5 8 29.9 9.1
10 5 9 41.7 10.5
10 5 10 1.1 5.8
10 5 11 15.6 8.7
-10 -4 11 2.3 5.2
-10 -4 11 -1.1 5.1
-10 -4 10 4.5 6.1
-10 -4 10 14.1 6.9
-10 -4 9 58.29 11.9
-10 -4 9 60.99 12.7
-10 -4 8 31.9 9.6
-10 -4 8 24.1 7.3
-10 -4 7 88.59 13.8
-10 -4 7 82.29 12.8
10 4 -7 85.79 14.1
-10 -4 6 21 6.1
-10 -4 6 14.2 5.9
10 4 -6 16.8 6.7
-10 -4 5 138.99 16.5
10 4 -5 156.28 18.2
10 4 -5 150.28 13.2
-10 -4 4 72.89 6.2
-10 -4 4 81.59 11.1
10 4 -4 58.19 8.3
10 4 -4 94.69 12.9
-10 -4 3 69.89 7.1
-10 -4 3 61.49 9.7
-10 -4 3 47.6 10.3
-10 -4 3 67.49 9.6
10 4 -3 43.6 8.9
10 4 -3 51.59 9.7
10 4 -3 56.39 7.7
-10 -4 2 147.79 15.3
-10 -4 2 126.79 13.7
-10 -4 2 116.89 15.6
-10 -4 2 124.79 11.5
10 4 -2 167.18 17
10 4 -2 124.59 16.1
10 4 -2 144.79 12.6
10 4 -2 144.69 17
-10 -4 1 202.68 20.6
-10 -4 1 191.78 16.1
-10 -4 1 169.48 18.5
-10 -4 1 255.07 21.4
-10 -4 1 217.48 16.9
10 4 -1 218.98 20.8
10 4 -1 189.58 18.8
10 4 -1 201.98 22.1
10 4 -1 215.78 16.7
-10 -4 0 447.06 35.3
-10 -4 0 392.76 33.9
-10 -4 0 470.15 30.2
-10 -4 0 413.26 30.2
-10 -4 0 410.76 32.3
10 4 0 394.56 32.7
10 4 0 415.46 29.5
10 4 0 462.45 37
10 4 0 491.95 36.2
10 4 0 415.56 30.4
-10 -4 -1 198.78 20.7
-10 -4 -1 210.68 16.3
-10 -4 -1 190.98 19.4
10 4 1 184.38 15.9
10 4 1 171.38 18.7
10 4 1 197.98 15.3
10 4 1 211.28 18.5
-10 -4 -2 131.79 15.9
-10 -4 -2 117.29 17
-10 -4 -2 148.09 12.7
10 4 2 126.29 15.1
10 4 2 141.49 16.5
10 4 2 115.39 11.7
10 4 2 125.39 11.9
10 4 2 172.48 20.3
-10 -4 -3 58.69 8.5
-10 -4 -3 66.39 12.3
-10 -4 -3 59.19 12.1
10 4 3 74.59 9.6
10 4 3 49 10.2
10 4 3 64.29 10.6
10 4 3 51.79 7.7
10 4 3 88.59 13.8
-10 -4 -4 83.89 10.5
-10 -4 -4 115.89 23.9
10 4 4 69.29 12
10 4 4 72.89 12
10 4 4 83.49 9.5
10 4 4 106.49 12.3
10 4 4 77.09 12.7
-10 -4 -5 154.68 15.1
10 4 5 180.68 19.4
10 4 5 113.89 14.8
10 4 5 141.19 14.7
10 4 5 138.09 11.8
10 4 5 143.59 15.3
-10 -4 -6 14.7 5.4
10 4 6 10.7 4.5
10 4 6 6.4 3.5
10 4 6 15.8 5.8
10 4 6 13.7 6.2
10 4 7 69.59 12.1
10 4 7 83.69 13.4
10 4 8 19.5 7.7
10 4 9 66.79 13.5
10 4 10 12.6 7.6
10 4 11 10.2 7.8
-10 -3 11 34.6 9.3
-10 -3 11 28.1 9.1
-10 -3 10 -1.5 5.5
-10 -3 10 6.3 7.2
-10 -3 9 1.2 5.8
-10 -3 9 0.5 4.7
-10 -3 8 116.69 15.7
-10 -3 8 120.19 16.8
-10 -3 7 0.9 3.9
-10 -3 7 -1 3.7
10 3 -7 -1.9 4.7
-10 -3 6 193.08 17.4
-10 -3 6 178.58 19.3
10 3 -6 189.48 18.7
-10 -3 5 44.8 8.5
10 3 -5 46.5 9.8
-10 -3 4 141.59 14.9
-10 -3 4 125.19 9.2
10 3 -4 141.39 16.8
-10 -3 3 11.7 2.8
-10 -3 3 8.5 4.1
-10 -3 3 7 5.3
-10 -3 3 2.2 3.5
10 3 -3 6.8 4.8
10 3 -3 9.2 5.1
-10 -3 2 124.49 11.7
-10 -3 2 93.09 14.2
-10 -3 2 121.89 10.3
-10 -3 2 119.09 15.9
10 3 -2 127.29 15.6
10 3 -2 145.59 15.4
10 3 -2 111.09 10.8
10 3 -2 132.69 16.1
-10 -3 1 101.99 9.3
-10 -3 1 131.69 10.3
-10 -3 1 103.29 13.4
-10 -3 1 113.49 15.7
10 3 -1 84.09 9.6
10 3 -1 61.79 11.3
10 3 -1 87.89 12.3
10 3 -1 108.49 13.1
-10 -3 0 7.8 3
-10 -3 0 11.3 3.9
-10 -3 0 15.7 5.6
-10 -3 0 17.3 6.2
-10 -3 0 11.4 5.6
10 3 0 13.5 6.9
10 3 0 13.7 4
10 3 0 9.8 4.7
10 3 0 6.6 5.1
-10 -3 -1 89.59 13.2
-10 -3 -1 80.39 8.3
-10 -3 -1 61.19 11.4
-10 -3 -1 81.49 9.5
10 3 1 94.89 12.4
10 3 1 85.39 9.4
10 3 1 74.99 11.5
10 3 1 80.09 8.7
-10 -3 -2 114.29 11.5
-10 -3 -2 84.09 13
-10 -3 -2 94.49 13.6
10 3 2 128.09 14.4
10 3 2 107.69 10
10 3 2 108.79 12.9
10 3 2 93.59 14.5
10 3 2 114.29 11.4
-10 -3 -3 3.8 3.3
-10 -3 -3 11.3 6.5
-10 -3 -3 3.3 4.6
10 3 3 13.5 3.6
10 3 3 12.2 5
10 3 3 4.4 2.9
10 3 3 9.6 5.7
10 3 3 14.7 5.6
-10 -3 -4 126.49 18.3
-10 -3 -4 137.49 13.6
10 3 4 119.49 14.3
10 3 4 136.99 11.5
10 3 4 149.69 14.4
10 3 4 145.49 13.3
10 3 4 117.39 13.9
-10 -3 -5 37.6 6.8
10 3 5 47.3 5.9
10 3 5 33.2 7.1
10 3 5 60.19 9.9
10 3 5 60.99 10.2
10 3 5 43.3 7.8
-10 -3 -6 166.28 15.6
10 3 6 193.98 16.4
10 3 6 163.88 18.6
10 3 6 178.18 17.4
10 3 6 181.18 15.6
10 3 7 4 4.5
10 3 7 4.3 4.1
10 3 8 98.89 15
10 3 9 7.7 6
10 3 10 12.4 7.5
10 3 11 37.2 12.1
-10 -2 11 18.7 8.3
-10 -2 11 20.4 8.6
-10 -2 10 51.99 11.2
-10 -2 10 41.4 10.6
-10 -2 9 2.6 5.4
-10 -2 9 2.3 5.8
-10 -2 8 123.39 15.2
-10 -2 8 64.79 12
-10 -2 7 11.7 5.3
-10 -2 7 13.9 6
10 2 -7 17.8 7.2
-10 -2 6 22.3 6.8
-10 -2 6 14.1 4.9
10 2 -6 16.9 7.1
-10 -2 5 81.69 10.5
-10 -2 5 103.39 12.8
10 2 -5 86.29 13.3
-10 -2 4 9.6 3.3
-10 -2 4 8.5 4.5
-10 -2 4 8.7 1.5
10 2 -4 9.7 5.3
-10 -2 3 166.58 14.7
-10 -2 3 166.68 15.3
-10 -2 3 176.58 12.2
10 2 -3 147.59 16.3
10 2 -3 132.89 17.1
-10 -2 2 95.89 10.5
-10 -2 2 98.79 13.7
-10 -2 2 91.99 7.8
-10 -2 2 87.59 11.7
10 2 -2 61.79 10.1
10 2 -2 58.39 10.3
10 2 -2 66.49 11.9
-10 -2 1 29.2 5.5
-10 -2 1 27.7 6.8
-10 -2 1 15.9 5.9
-10 -2 1 21.1 4.5
10 2 -1 25 7.7
10 2 -1 33.2 7.6
10 2 -1 21.3 6.3
-10 -2 0 756.42 51.49
-10 -2 0 710.13 50.89
10 2 0 842.62 54.89
10 2 0 713.33 54.89
10 2 0 910.01 51.99
-10 -2 -1 25.6 8.4
-10 -2 -1 25.7 5
-10 -2 -1 32.9 6.7
-10 -2 -1 17.8 6.6
-10 -2 -1 21 4
10 2 1 28.1 5.1
10 2 1 22.1 6.7
10 2 1 21.4 8
10 2 1 16.3 5.7
-10 -2 -2 56.49 10.4
-10 -2 -2 46.7 7.2
-10 -2 -2 77.59 6.4
-10 -2 -2 67.69 13.6
10 2 2 66.29 9.9
10 2 2 64.29 7.8
10 2 2 77.99 8.5
10 2 2 81.19 12
10 2 2 57.19 9.9
-10 -2 -3 149.29 18.1
-10 -2 -3 149.59 13.5
-10 -2 -3 136.39 16.5
10 2 3 166.98 15.4
10 2 3 172.28 16.3
10 2 3 151.08 16.6
10 2 3 186.28 13.6
10 2 3 153.08 13.7
-10 -2 -4 11.1 6.7
-10 -2 -4 4.1 3.3
10 2 4 7 3.4
10 2 4 4.4 2.6
10 2 4 16 5.3
10 2 4 7.1 4.3
10 2 4 5.7 4.4
-10 -2 -5 70.59 9.2
10 2 5 75.59 7.8
10 2 5 82.49 11.2
10 2 5 73.79 10.6
10 2 5 83.19 11
10 2 5 68.19 10.1
-10 -2 -6 17 5.1
10 2 6 28.2 6.8
10 2 6 13.1 3.9
10 2 6 13 5.3
10 2 6 19.5 4.9
10 2 7 20.7 6.4
10 2 8 84.79 13.5
10 2 9 13.9 7.1
10 2 10 56.79 13.1
10 2 11 24.7 9.5
-10 -1 11 31.3 9.7
-10 -1 10 47.6 9.4
-10 -1 10 31 9.5
-10 -1 10 31.1 9.4
-10 -1 9 42.3 10
-10 -1 9 17.2 7.2
-10 -1 9 27.9 7.3
-10 -1 8 114.99 13.3
-10 -1 8 89.09 13.4
-10 -1 8 97.19 14.3
10 1 -8 153.48 27.4
-10 -1 7 61.09 10.7
-10 -1 7 84.79 11.7
10 1 -7 64.09 12.4
-10 -1 6 94.69 11.7
-10 -1 6 65.89 11
10 1 -6 94.09 14.6
-10 -1 5 126.09 14.9
-10 -1 5 118.29 12.8
10 1 -5 132.59 17.7
-10 -1 4 283.67 23.3
-10 -1 4 297.07 21.1
10 1 -4 303.77 25.7
-10 -1 3 35.7 6.9
-10 -1 3 44.1 7.6
-10 -1 3 34.3 4.4
10 1 -3 16.3 6.4
-10 -1 2 58.49 8.1
-10 -1 2 76.19 11.1
-10 -1 2 70.99 7.3
10 1 -2 38.8 8.9
10 1 -2 58.19 10.7
-10 -1 1 126.19 14
-10 -1 1 55.89 9.5
-10 -1 1 81.49 9.1
-10 -1 1 76.09 8.7
10 1 -1 126.49 14.5
10 1 -1 105.69 12.4
10 1 -1 64.29 10.9
-10 -1 0 2.2 3.9
-10 -1 0 3.6 5.1
-10 -1 0 4.1 2.9
-10 -1 0 3.6 2.7
10 1 0 0.3 9.8
10 1 0 0.9 3
10 1 0 3.2 3.7
-10 -1 -1 73.79 9.4
-10 -1 -1 67.99 8.3
-10 -1 -1 50.99 9.3
-10 -1 -1 64.39 7.2
10 1 1 79.79 11.7
10 1 1 61.89 7.4
10 1 1 41.4 9.2
10 1 1 57.69 9.4
-10 -1 -2 48.8 7.3
-10 -1 -2 44.8 5.3
-10 -1 -2 39.6 9.3
-10 -1 -2 50.39 7.2
10 1 2 54.09 7.1
10 1 2 36.9 8.2
10 1 2 41.1 7.9
10 1 2 43.2 8.3
10 1 2 63.79 7.5
-10 -1 -3 30.6 3.8
-10 -1 -3 26.9 7.7
-10 -1 -3 46.5 10.9
-10 -1 -3 29 5.4
10 1 3 39.9 7.6
10 1 3 30.2 5.1
10 1 3 37.7 8
10 1 3 31.6 7.9
10 1 3 34.3 6
-10 -1 -4 253.37 24.4
-10 -1 -4 283.57 20.8
10 1 4 272.07 23
10 1 4 272.57 22.8
10 1 4 283.87 22.3
10 1 4 253.77 19.5
10 1 4 298.47 21.8
-10 -1 -5 101.99 11
10 1 5 117.59 13.3
10 1 5 90.29 10.8
10 1 5 96.19 11.9
10 1 5 104.69 8.6
10 1 5 99.69 11.5
-10 -1 -6 95.29 10.6
10 1 6 77.19 8.7
10 1 6 69.39 8.1
10 1 6 90.19 12.3
10 1 6 106.39 12
10 1 7 53.39 10.1
10 1 8 106.49 15.1
10 1 9 9.8 5.9
10 1 10 35.1 10.3
10 1 11 39.1 11.7
-10 0 11 48 9.9
-10 0 11 35.7 9.8
-10 0 10 28 8.9
-10 0 10 21.5 6.9
-10 0 9 63.59 11.2
-10 0 9 62.29 11.9
-10 0 9 34.1 8
-10 0 8 32.8 7.3
-10 0 8 20.2 7.5
-10 0 8 23 6.6
10 0 -8 25.9 9
-10 0 7 3.7 5.3
-10 0 7 3.2 3.7
-10 0 7 6.3 4.1
10 0 -7 7.6 6.1
-10 0 6 209.88 18.2
-10 0 6 181.58 16.2
10 0 -6 161.18 20.8
-10 0 5 315.07 23
-10 0 5 315.87 24.9
10 0 -5 287.87 26.3
-10 0 4 630.24 44.5
-10 0 4 646.54 42.2
10 0 -4 633.04 47.3
-10 0 3 199.28 16.4
-10 0 3 172.78 16.3
-10 0 3 195.88 13.6
10 0 -3 191.38 21.2
-10 0 2 899.41 60.99
-10 0 2 1006.6 57.69
-10 0 2 900.61 58.89
10 0 -2 780.22 60.59
10 0 -2 851.31 61.49
-10 0 1 1140.59 76.39
-10 0 1 1152.38 73.29
-10 0 1 1094.19 72.59
10 0 -1 1131.79 76.39
-10 0 0 460.05 32
10 0 0 487.85 35.8
10 0 0 448.26 35
-10 0 -1 664.93 51.09
-10 0 -1 728.33 49.3
-10 0 -1 740.33 48.3
10 0 1 794.82 52.49
10 0 1 711.33 50.59
-10 0 -2 712.23 45.8
-10 0 -2 632.14 48.8
-10 0 -2 725.23 45.9
10 0 2 676.93 48.9
10 0 2 671.43 48.8
10 0 2 690.43 47.7
-10 0 -3 173.38 14.5
-10 0 -3 188.78 14.5
-10 0 -3 165.38 17.9
10 0 3 176.18 14.7
10 0 3 198.48 16.4
10 0 3 167.08 14
10 0 3 179.88 17.2
10 0 3 183.48 17.4
-10 0 -4 629.44 38.2
-10 0 -4 615.94 40.9
-10 0 -4 587.44 44.8
10 0 4 625.14 41.7
10 0 4 585.14 43.3
10 0 4 581.04 43.1
10 0 4 591.14 42
10 0 4 590.14 39.8
-10 0 -5 285.07 21.5
10 0 5 282.07 19.8
10 0 5 296.27 23
10 0 5 278.07 22.6
10 0 5 262.87 21.9
10 0 5 303.17 22.9
-10 0 -6 184.38 16.1
10 0 6 180.38 15.4
10 0 6 202.88 15.4
10 0 6 202.58 17.8
10 0 6 197.98 23.6
10 0 7 4.2 4
10 0 8 46.9 9.8
10 0 9 64.79 12
10 0 10 43.5 11.1
10 0 11 59.89 13.5
-10 1 11 27.9 8.3
-10 1 11 19.3 7.6
-10 1 10 36.7 9.8
-10 1 10 40.7 8.9
-10 1 9 26.2 7.2
-10 1 9 30.3 8.7
-10 1 8 141.19 16.7
-10 1 8 107.79 13.6
-10 1 8 85.29 12.4
10 -1 -8 114.19 17.2
-10 1 7 71.49 10.2
-10 1 7 58.29 10.9
-10 1 7 56.79 9.1
10 -1 -7 59.89 12
-10 1 6 98.19 11.9
-10 1 6 84.89 12.7
-10 1 6 99.49 11.4
10 -1 -6 108.89 15.8
-10 1 5 106.99 10.1
-10 1 5 106.79 13
10 -1 -5 99.59 15
-10 1 4 271.77 22.5
-10 1 4 287.37 20.6
-10 1 4 286.17 20.1
10 -1 -4 270.57 25.1
-10 1 3 31.9 4.6
-10 1 3 37 7.5
10 -1 -3 30.2 8.3
-10 1 2 53.79 9.8
-10 1 2 43.2 5.9
10 -1 -2 46.5 9.2
10 -1 -2 57.59 10.1
-10 1 1 115.89 9.4
-10 1 1 97.29 12.7
10 -1 -1 72.19 10.8
10 -1 -1 86.39 12.5
-10 1 0 5.7 3
-10 1 0 0.8 3.9
10 -1 0 2.9 4.3
10 -1 0 1.5 3.7
-10 1 -1 80.29 11.6
-10 1 -1 71.09 8.3
10 -1 1 42.3 9.3
10 -1 1 56.69 9.7
-10 1 -2 48.1 6.6
-10 1 -2 43.9 9.1
10 -1 2 33.5 7.1
10 -1 2 46.2 8.6
10 -1 2 31.4 7.3
-10 1 -3 35.4 5.8
-10 1 -3 48.4 9.9
-10 1 -3 28 5.1
10 -1 3 36.2 5.9
10 -1 3 34.6 6.8
10 -1 3 29.7 7.4
10 -1 3 30 6.8
-10 1 -4 264.67 20.6
-10 1 -4 264.67 24.3
-10 1 -4 267.07 19.2
10 -1 4 274.07 22.8
10 -1 4 284.07 19.8
10 -1 4 292.27 21.8
10 -1 4 276.47 21.1
10 -1 4 265.37 22.6
-10 1 -5 111.69 11.6
10 -1 5 93.19 11.7
10 -1 5 115.39 12.4
10 -1 5 102.69 8.8
10 -1 5 120.69 11.9
10 -1 5 95.89 11.2
-10 1 -6 60.79 9
10 -1 6 76.69 8.2
10 -1 6 103.79 12.5
10 -1 7 60.79 10.1
10 -1 8 113.89 15.7
10 -1 9 49.3 10.9
10 -1 10 53.39 11.5
10 -1 11 37.1 11
-10 2 11 24.9 8.3
-10 2 11 20.2 8.1
-10 2 10 52.89 10.6
-10 2 10 44.3 10.9
-10 2 9 9.4 5.6
-10 2 9 10.6 6.6
-10 2 8 97.69 14.8
-10 2 8 90.89 12.5
10 -2 -8 115.89 17.7
-10 2 7 10.9 4.8
-10 2 7 6.5 4.9
10 -2 -7 4.9 6.1
-10 2 6 19.4 5.9
-10 2 6 15.8 4.4
-10 2 6 26.6 6.9
10 -2 -6 25.6 8.6
-10 2 5 77.39 8.7
10 -2 -5 77.09 13
-10 2 4 9.5 1.6
-10 2 4 7.8 2.6
-10 2 4 1.7 1.5
-10 2 4 7.7 3.8
10 -2 -4 10.7 6.3
-10 2 3 169.18 16.6
-10 2 3 166.28 12.8
10 -2 -3 184.78 21
-10 2 2 70.49 8.8
-10 2 2 116.29 14.6
10 -2 -2 122.99 15.8
10 -2 -2 111.59 14.8
-10 2 1 19.2 4.3
-10 2 1 20.3 6.2
10 -2 -1 31.4 7.5
10 -2 -1 17.5 6
-10 2 0 891.51 60.09
-10 2 0 1117.59 67.09
10 -2 0 917.61 63.49
10 -2 0 761.52 62.69
-10 2 -1 17.7 5.6
-10 2 -1 19 4.5
10 -2 1 19.2 6.2
10 -2 1 14.1 4.8
-10 2 -2 84.99 13.1
-10 2 -2 79.89 9.1
10 -2 2 69.59 10.5
10 -2 2 70.99 10.2
-10 2 -3 136.89 15.9
-10 2 -3 157.58 12.9
10 -2 3 153.78 14.1
10 -2 3 125.59 14.6
10 -2 3 146.99 15.4
-10 2 -4 4.7 2.9
-10 2 -4 2.2 3.1
10 -2 4 6.2 2.9
10 -2 4 6.9 4.4
10 -2 4 6.9 3.2
10 -2 4 11.1 4.6
10 -2 4 8 3.7
-10 2 -5 53.59 8
10 -2 5 69.19 10.1
10 -2 5 62.49 10.1
10 -2 5 74.19 6.8
10 -2 5 77.29 10
10 -2 5 77.19 9.7
10 -2 5 87.69 11.3
-10 2 -6 7.7 3.9
10 -2 6 18 5.2
10 -2 6 22.9 6.6
10 -2 6 19.4 4.7
10 -2 6 15 4.3
10 -2 7 1.7 4.9
10 -2 7 12.4 5.3
10 -2 8 118.59 15.5
10 -2 8 92.09 14.7
10 -2 9 5.3 5.3
10 -2 9 12.8 6.9
10 -2 10 60.09 12.4
10 -2 10 45.7 11.8
10 -2 11 25.7 9.2
-10 3 11 54.19 11.9
-10 3 11 47.2 11.4
-10 3 10 0.3 6
-10 3 10 15.2 7.2
-10 3 9 2.8 5.3
-10 3 9 15.8 6.6
10 -3 -9 2.6 7.4
-10 3 8 100.29 14.4
-10 3 8 109.29 14
10 -3 -8 74.19 15.1
-10 3 7 -0.9 3.5
10 -3 -7 8.1 6.3
-10 3 6 199.48 17.9
10 -3 -6 206.98 24.9
-10 3 5 53.59 8.5
10 -3 -5 47.6 11.5
-10 3 4 128.99 10.2
-10 3 4 132.59 9.8
-10 3 4 136.69 13.2
10 -3 -4 143.09 19.5
-10 3 3 9.4 3
-10 3 3 12.3 5.7
-10 3 3 8.6 2
10 -3 -3 7.3 5.4
-10 3 2 102.19 14.2
-10 3 2 114.19 10.5
10 -3 -2 145.19 17.4
10 -3 -2 119.09 14.5
-10 3 1 93.39 10.9
-10 3 1 123.99 14.5
10 -3 -1 91.99 14.7
10 -3 -1 134.69 14.4
-10 3 0 25.1 9.5
-10 3 0 7 3.1
10 -3 0 16.2 6.4
10 -3 0 10.1 5.2
-10 3 -1 101.29 10.9
10 -3 1 88.79 12.4
-10 3 -2 115.09 13.8
-10 3 -2 108.69 11.4
10 -3 2 108.19 14.5
10 -3 2 85.29 12.6
-10 3 -3 5.4 4
-10 3 -3 5.2 3
10 -3 3 6.1 3.6
10 -3 3 10.8 4.8
10 -3 3 10.8 4.6
-10 3 -4 132.89 12.4
10 -3 4 139.99 12.2
10 -3 4 118.49 13.9
10 -3 4 135.69 13.1
10 -3 4 123.29 14.5
10 -3 4 159.18 13.5
-10 3 -5 48.1 7.3
10 -3 5 45.3 8.3
10 -3 5 40 8
10 -3 5 63.79 10.1
10 -3 5 50.29 8.7
10 -3 5 57.49 6.4
10 -3 5 52.19 7.9
-10 3 -6 187.68 16.5
10 -3 6 193.58 16.4
10 -3 6 202.48 17.3
10 -3 6 193.58 16.5
10 -3 6 197.08 18.8
10 -3 7 2.1 3.6
10 -3 7 6.1 5.3
10 -3 8 111.69 14.4
10 -3 8 93.59 14.8
10 -3 9 1.5 6.1
10 -3 9 5.6 5.5
10 -3 10 18.2 7.5
10 -3 10 8.6 6.8
10 -3 11 29.6 11.4
10 -3 11 42.5 16.7
-10 4 11 8 6.2
-10 4 11 1.9 7.9
-10 4 10 6.7 6.6
-10 4 10 16.5 6.7
-10 4 9 72.49 12.4
-10 4 9 59.69 12
10 -4 -9 81.59 16.7
-10 4 8 32.5 7.8
10 -4 -8 16.7 8.9
-10 4 7 79.59 11.4
10 -4 -7 59.19 13.3
-10 4 6 8.1 4.6
10 -4 -6 3 5.5
-10 4 5 146.59 14
10 -4 -5 149.49 20.6
-10 4 4 80.79 7.3
-10 4 4 87.19 11.2
10 -4 -4 54.29 12.7
-10 4 3 77.09 11.7
-10 4 3 66.79 7.9
10 -4 -3 56.99 12.1
-10 4 2 152.28 12.5
-10 4 2 115.49 14.9
10 -4 -2 127.99 18
10 -4 -2 165.58 16.8
-10 4 1 246.28 21.5
-10 4 1 182.58 16.4
10 -4 -1 196.28 20
10 -4 -1 231.28 21.2
-10 4 0 446.76 32.7
-10 4 0 519.65 37.4
10 -4 0 402.86 35.7
10 -4 0 475.35 36.5
-10 4 -1 213.08 20.3
-10 4 -1 186.18 16.4
10 -4 1 215.68 19.8
-10 4 -2 106.69 14.9
-10 4 -2 132.79 12
10 -4 2 134.39 15.2
10 -4 2 136.59 15.9
10 -4 2 119.59 11
-10 4 -3 66.79 8.6
-10 4 -3 50.79 10
10 -4 3 55.59 10.6
10 -4 3 52.39 8.1
10 -4 3 62.69 9.9
-10 4 -4 64.89 15
-10 4 -4 88.19 10.7
10 -4 4 91.09 11.4
10 -4 4 74.79 12.4
10 -4 4 80.29 10.8
10 -4 4 93.79 10.2
-10 4 -5 146.59 13.6
10 -4 5 119.59 12.4
10 -4 5 138.49 14.9
10 -4 5 150.18 15.5
10 -4 5 155.98 14.8
-10 4 -6 14.5 4.9
10 -4 6 15.1 5.1
10 -4 6 8.9 5.6
10 -4 6 11.9 4.3
10 -4 6 15.6 4.9
10 -4 7 76.49 12.8
10 -4 7 84.89 11.8
10 -4 8 27.5 7.6
10 -4 8 21 8.2
10 -4 9 81.19 14.5
10 -4 9 48.4 10.6
10 -4 10 4.3 7.4
10 -4 11 2 7.3
-10 5 11 17.9 7.8
-10 5 10 -0.3 5.9
-10 5 10 3.8 4.8
-10 5 9 36.6 9.3
-10 5 9 29.4 9.2
10 -5 -9 45.3 13.5
-10 5 8 29.4 8
10 -5 -8 17.3 9.5
-10 5 7 11.8 5.2
10 -5 -7 12.9 8.6
-10 5 6 47.4 8.3
10 -5 -6 21 8.7
-10 5 5 1.3 2.5
-10 5 5 2.4 3.8
-10 5 5 5.1 4.1
10 -5 -5 -5.9 4.9
-10 5 4 16.8 6
-10 5 4 13.4 3.6
10 -5 -4 9.6 6.4
-10 5 3 26.2 7.1
-10 5 3 17 4.3
10 -5 -3 28.8 9.1
-10 5 2 9.9 5.8
-10 5 2 7 3.6
10 -5 -2 10.4 5.9
10 -5 -2 22.2 7.9
-10 5 1 33.1 8.9
-10 5 1 33.1 6
10 -5 -1 35.5 9.4
10 -5 -1 28.9 8.7
-10 5 0 4.8 5
-10 5 0 5.6 3.4
10 -5 0 11.8 6.1
10 -5 0 11.4 5.3
-10 5 -1 22 7.5
-10 5 -1 35.5 6.6
10 -5 1 25.1 4.6
10 -5 1 19.3 6.7
10 -5 1 28.5 7.9
-10 5 -2 16.4 7.1
-10 5 -2 11.4 4
10 -5 2 15.2 6
10 -5 2 8.5 4.8
10 -5 2 13.1 3.9
-10 5 -3 16.8 4.6
10 -5 3 20.6 5.5
10 -5 3 27.4 6.9
10 -5 3 28.9 8.1
-10 5 -4 13.6 4.7
10 -5 4 14.5 6.1
10 -5 4 9.6 3.5
10 -5 4 14.8 5.3
10 -5 4 12.8 5
-10 5 -5 8 4
10 -5 5 4.7 3
10 -5 5 2.8 4.4
10 -5 5 -1.7 2.9
-10 5 -6 23.5 6.3
10 -5 6 30.6 6.6
10 -5 6 25.2 6.6
10 -5 6 26.6 6.5
10 -5 6 35.5 9
10 -5 7 19.5 7.7
10 -5 7 22.9 6.4
10 -5 8 32.9 8.2
10 -5 8 20.3 8.1
10 -5 9 43.1 11.8
10 -5 10 2 5.8
10 -5 11 22.2 10.1
-10 6 10 4 5.4
-10 6 10 -1 6.2
10 -6 -10 12.4 11.5
-10 6 9 16.1 7.3
10 -6 -9 12.5 10.6
-10 6 8 -3.3 3.7
10 -6 -8 4.3 8.2
-10 6 7 41.5 8.9
10 -6 -7 41 12.7
-10 6 6 45.4 8.6
10 -6 -6 49.99 13.8
-10 6 5 202.58 17.5
-10 6 5 218.18 18.5
-10 6 5 202.18 18.4
10 -6 -5 175.38 24.7
-10 6 4 43 6.5
-10 6 4 44.8 9.5
-10 6 4 50.49 9.6
10 -6 -4 47.9 13.1
-10 6 3 56.09 11.8
-10 6 3 41 6.8
10 -6 -3 43.1 12.3
-10 6 2 27 5.7
-10 6 2 19.6 7.5
10 -6 -2 18.2 7.5
-10 6 1 55.79 10.7
-10 6 1 72.79 9.7
10 -6 -1 102.39 15.6
-10 6 0 144.69 17.5
-10 6 0 131.09 14.3
10 -6 0 122.39 17.7
-10 6 -1 49.1 10.9
-10 6 -1 67.59 9.2
10 -6 1 61.59 11.8
10 -6 1 85.49 16
10 -6 1 76.29 8
-10 6 -2 30 6.4
10 -6 2 29.7 8.4
10 -6 2 18.4 7.3
10 -6 2 27.1 5.5
-10 6 -3 37.7 7.2
10 -6 3 40.5 9
10 -6 3 30 6.4
10 -6 3 32.8 9
-10 6 -4 37.7 7.6
10 -6 4 31 8.2
10 -6 4 49.1 9.1
10 -6 4 56.59 9.4
-10 6 -5 205.08 18.6
10 -6 5 203.98 17.1
10 -6 5 215.78 20.5
10 -6 5 225.08 20.1
-10 6 -6 65.69 9.6
10 -6 6 32.5 6.9
10 -6 6 47.6 9.3
10 -6 6 40.5 9.1
10 -6 6 36.2 8.8
10 -6 7 47.4 7.3
10 -6 7 52.19 11.1
10 -6 8 8.5 6.3
10 -6 9 9 8.3
10 -6 10 0.1 6.2
-10 7 10 4.7 5.7
10 -7 -10 8.8 10.9
-10 7 9 65.79 12.6
10 -7 -9 63.59 16.7
-10 7 8 45.6 10.1
10 -7 -8 42.1 14.4
-10 7 7 32 7.8
10 -7 -7 18.6 10.3
-10 7 6 90.49 13
10 -7 -6 83.79 18.5
-10 7 5 62.89 10.6
-10 7 5 71.79 10.7
-10 7 5 46.8 10.1
10 -7 -5 51.39 14.2
-10 7 4 25.6 5.2
-10 7 4 33.3 7.5
-10 7 4 20.5 8
10 -7 -4 22.7 10.1
-10 7 3 67.29 9
-10 7 3 65.39 12.9
10 -7 -3 32.5 10.6
-10 7 2 65.29 9.7
-10 7 2 100.99 16.8
10 -7 -2 69.29 14.4
-10 7 1 42 7.4
-10 7 1 44.9 11.5
10 -7 -1 46.9 11.6
-10 7 0 273.67 21.6
-10 7 0 247.18 25.9
10 -7 0 256.87 25.8
-10 7 -1 59.49 9.3
10 -7 1 63.29 12.7
10 -7 1 47.8 6.9
-10 7 -2 71.09 9.9
10 -7 2 63.89 8.6
10 -7 2 68.49 12.5
-10 7 -3 49 8.6
10 -7 3 74.79 12.2
10 -7 3 48.9 8.2
-10 7 -4 35.9 7.6
10 -7 4 41.5 9.5
10 -7 4 22.4 6.9
-10 7 -5 58.79 9.3
10 -7 5 52.49 7.3
10 -7 5 43.7 9.8
10 -7 5 39.4 9
-10 7 -6 68.39 10.8
10 -7 6 55.19 10.7
10 -7 6 94.59 13.9
10 -7 7 12.3 4.7
10 -7 7 12.5 5.1
10 -7 7 20.6 8.6
10 -7 8 19.1 8.3
10 -7 9 37.7 11.3
10 -7 10 5.8 7.6
-10 8 10 21.6 8.4
10 -8 -10 20.5 13.3
-10 8 9 28.9 9.6
10 -8 -9 48.6 15.1
-10 8 8 17.2 6.8
10 -8 -8 13.9 11
-10 8 7 83.79 13.1
10 -8 -7 75.19 19
-10 8 6 -4.7 3.3
-10 8 6 -3.2 3.9
-10 8 6 1.1 3.3
10 -8 -6 -3.6 7.9
-10 8 5 44.3 9.4
-10 8 5 45.2 10.3
-10 8 5 29.1 7.8
10 -8 -5 47.3 14
-10 8 4 21.9 7
-10 8 4 32.5 9.1
-10 8 4 32.3 6.4
10 -8 -4 32 11.8
-10 8 3 137.29 14.2
-10 8 3 115.59 17.5
10 -8 -3 83.59 17
-10 8 2 7.7 6.2
-10 8 2 7.8 4
10 -8 -2 7.1 7.7
-10 8 1 34.7 11.5
-10 8 1 53.89 9.1
10 -8 -1 40.8 11.1
-10 8 0 136.49 15.3
10 -8 0 127.09 19.6
-10 8 -1 40.7 7.9
10 -8 1 38.7 11.1
-10 8 -2 2.3 4.1
10 -8 2 4.6 5.6
10 -8 2 0.6 3.3
-10 8 -3 95.89 12.8
10 -8 3 86.29 11.6
10 -8 3 85.79 14.7
-10 8 -4 27.9 6.9
10 -8 4 14.3 6
-10 8 -5 40.2 8.4
10 -8 5 32.2 8.4
-10 8 -6 -1.7 4.3
10 -8 6 -6.4 4.7
10 -8 6 1.4 4.6
10 -8 7 73.79 13.3
10 -8 7 69.79 13.4
10 -8 7 65.99 10.5
10 -8 8 5 6.6
10 -8 9 27.1 10.2
10 -8 10 26.9 10.9
-10 9 9 1.9 5.6
10 -9 -9 10.7 12.8
-10 9 8 10.4 6.9
10 -9 -8 1.2 8.7
-10 9 7 52.89 10.7
10 -9 -7 35.3 15.2
-10 9 6 10.9 6.9
-10 9 6 7.3 6.3
-10 9 6 26.4 7
10 -9 -6 12.4 10
-10 9 5 199.78 19.7
-10 9 5 185.68 21.2
-10 9 5 179.38 19.8
10 -9 -5 174.08 27.4
-10 9 4 7.6 4.1
-10 9 4 2.6 6.2
10 -9 -4 17.1 10.6
-10 9 3 84.09 16
-10 9 3 91.49 12.6
10 -9 -3 116.99 20.7
-10 9 2 135.49 15.4
10 -9 -2 120.89 20.9
-10 9 1 28.9 6.9
10 -9 -1 24.6 10
-10 9 0 145.69 16.7
10 -9 0 158.68 23.3
-10 9 -1 20.7 6.2
10 -9 1 42.7 11.3
-10 9 -2 152.38 17.2
10 -9 2 124.19 20
-10 9 -3 100.89 13.8
10 -9 3 84.29 15
10 -9 3 85.49 12
-10 9 -4 13 6
10 -9 4 5.2 4.9
-10 9 -5 210.68 22.5
10 -9 5 216.68 21.1
-10 9 -6 18.6 7.4
10 -9 6 23.3 8.8
10 -9 7 60.59 12.6
10 -9 7 43 9.4
10 -9 8 13.1 8.7
10 -9 9 5.8 8.2
-10 10 8 14.8 8.1
10 -10 -8 18.1 14.5
-10 10 7 25.1 8.3
10 -10 -7 9.4 10.5
-10 10 6 27.2 7.8
-10 10 6 18.4 7.6
10 -10 -6 16.3 11.9
-10 10 5 7.6 7.3
10 -10 -5 -1.8 8
-10 10 4 120.09 13.9
-10 10 4 100.59 18.4
10 -10 -4 89.89 20.1
-10 10 3 43 8.8
10 -10 -3 34.4 12.2
-10 10 2 102.09 13.8
10 -10 -2 79.69 17.6
-10 10 1 9.2 5.2
10 -10 -1 18.8 9.5
-10 10 0 95.79 13.4
10 -10 0 76.59 17.3
-10 10 -1 10 5.2
10 -10 1 11.4 8.3
-10 10 -2 93.89 13.1
10 -10 2 76.19 15.8
-10 10 -3 16.4 6.3
10 -10 3 34.9 10.9
-10 10 -4 124.89 16.3
10 -10 4 109.89 15.1
-10 10 -5 16 7
10 -10 5 16.6 7.5
-10 10 -6 37.2 9.9
10 -10 6 21.4 8.9
10 -10 7 31.2 10
10 -10 8 22.1 10
-10 11 8 8.9 7.5
10 -11 -8 0 11.9
-10 11 7 -5.7 5.3
10 -11 -7 9 11.5
-10 11 6 6.8 6.7
10 -11 -6 22.8 12.5
-10 11 5 -3.8 6.6
10 -11 -5 -2.2 10.1
-10 11 4 23.6 7
-10 11 4 18.4 9.6
10 -11 -4 23.1 11.9
-10 11 3 21.3 7
10 -11 -3 36.3 14.1
-10 11 2 29 7.5
10 -11 -2 15.1 10.5
-10 11 1 21.7 7.2
10 -11 -1 24.1 12.1
-10 11 0 42.4 9.1
10 -11 0 29.5 12
-10 11 -1 8.7 5.5
10 -11 1 4.3 8
-10 11 -2 30.8 8.4
10 -11 2 42.7 12.8
-10 11 -3 18.1 7.4
10 -11 3 15.5 10
-10 11 -4 25.1 8
-10 11 -5 8.6 6
-10 11 -6 22.7 8.3
10 -11 6 3 7.6
10 -11 7 3.7 7.9
10 -11 8 4.7 8.8
-10 12 7 -4.9 5.2
10 -12 -7 3 11.9
10 -12 -6 11.1 12.4
10 -12 -5 20.9 13.8
-10 12 4 33.4 8.8
10 -12 -4 24 12.8
-10 12 3 1.9 5.1
10 -12 -3 -0.6 9.9
-10 12 2 58.19 11.1
10 -12 -2 51.49 16.6
-10 12 1 95.39 14.7
10 -12 -1 96.89 21.3
-10 12 0 6.8 5.5
10 -12 0 14.3 10.7
-10 12 -1 78.09 13.5
10 -12 1 83.29 18.2
-10 12 -2 40.1 10
10 -12 2 56.09 15
-10 12 -3 8.7 5.8
-10 12 -4 43.7 10.2
-10 12 -5 17 8.4
-10 12 -6 28.5 9.7
10 -12 7 -9.3 8.6
10 -13 -5 -1.2 10
-10 13 4 7.4 6.1
10 -13 -4 -6.3 9.8
-10 13 3 14.5 7.2
10 -13 -3 10.2 10.8
-10 13 2 16.3 7.2
10 -13 -2 29.6 13.6
-10 13 1 3.8 5.8
10 -13 -1 -6.5 6.7
-10 13 0 0.5 5.1
10 -13 0 8.1 8.9
-10 13 -1 5.8 6
10 -13 1 5.1 8
-10 13 -2 17.4 7.6
10 -13 2 9.8 9.8
-10 13 -3 18.1 7.7
-10 13 -4 1.7 6
-10 13 -5 -2.1 6.3
-10 14 4 54.59 11.2
10 -14 -4 73.09 21.3
-10 14 3 18.9 7.7
10 -14 -3 -2.1 9.3
-10 14 2 2.7 6.5
10 -14 -2 -2.9 8.4
-10 14 1 20.4 8.7
10 -14 -1 40.6 15.2
-10 14 0 19.6 8.3
10 -14 0 4.9 9.9
-10 14 -1 22.9 9.4
10 -14 1 41.2 15.1
-10 14 -2 4.9 7.1
10 -14 2 4.7 10.5
-10 14 -3 6.7 7.5
-10 14 -4 51.59 12
-11 -14 3 8.6 8.6
11 14 -3 23.7 11.7
11 14 -3 21.7 9.8
-11 -14 2 -0.5 5
-11 -14 2 -2.2 6.8
11 14 -2 0.5 6.5
11 14 -2 -5.3 8.5
-11 -14 1 19.6 7
11 14 -1 18.7 8.8
-11 -14 0 -2.3 4.4
11 14 0 20.1 8.8
-11 -14 -1 24.9 8.7
11 14 1 26.9 9.2
-11 -14 -2 -6 4.8
11 14 2 0.4 5.4
-11 -14 -3 13 7.3
11 14 3 23.2 8.6
-11 -13 5 5.4 8.5
11 13 -5 18.3 9.7
-11 -13 4 20.7 10.1
11 13 -4 55.09 12.6
11 13 -4 33.6 13.3
-11 -13 3 27 10.4
11 13 -3 32.8 10.2
11 13 -3 62.59 15.5
-11 -13 2 25.5 7.2
11 13 -2 31.5 12.3
11 13 -2 13.4 7.6
-11 -13 1 1.2 4.9
11 13 -1 2.1 7.1
11 13 -1 -4.5 5
-11 -13 0 -0.2 4.5
11 13 0 -5.2 4.7
11 13 0 1.8 7.4
-11 -13 -1 6.5 5.3
11 13 1 -1.2 6.9
11 13 1 3.7 5.4
-11 -13 -2 20 7.8
11 13 2 18.9 7.8
-11 -13 -3 20.2 7.4
11 13 3 45.5 10.5
-11 -13 -4 51.99 11.4
-11 -13 -5 15.2 7.6
11 13 5 3.5 5.9
-11 -12 6 -0.4 7.4
-11 -12 6 5.6 7.1
-11 -12 5 23.2 11.1
11 12 -5 46.7 11.1
-11 -12 4 3.3 6.9
11 12 -4 -6.8 6.9
11 12 -4 8.9 7.3
-11 -12 3 4.7 4.2
-11 -12 3 1.3 6.8
11 12 -3 9.3 7.3
11 12 -3 15.2 8.9
-11 -12 2 12.3 5.3
-11 -12 2 -2.9 5.5
11 12 -2 4 5.4
11 12 -2 -0.5 6.3
-11 -12 1 20.4 6.7
11 12 -1 6 5.9
11 12 -1 10.8 8.1
-11 -12 0 0.3 3.9
11 12 0 1.7 4.9
11 12 0 4.5 7.1
-11 -12 -1 7.6 5.6
11 12 1 28.3 11.7
11 12 1 29.7 8.5
-11 -12 -2 4.5 5.4
11 12 2 -0.5 5.7
11 12 2 9.3 6.1
-11 -12 -3 4.5 4.6
11 12 3 6.3 5.6
11 12 3 15.2 9.1
-11 -12 -4 15.8 7.1
11 12 4 5.3 5.2
-11 -12 -5 38.3 9.9
11 12 5 28.2 8.2
11 12 5 20.8 9.5
-11 -12 -6 -3.3 5.6
11 12 6 4.5 7.7
-11 -11 7 34.5 10.8
-11 -11 6 4.2 6.9
-11 -11 6 12.7 9.4
-11 -11 5 1.7 7.8
11 11 -5 5 6.6
11 11 -5 18.8 9.3
-11 -11 4 19.6 9.3
11 11 -4 13.7 8.6
11 11 -4 33.9 9.8
-11 -11 3 -0.8 5.3
-11 -11 3 7.6 4.2
11 11 -3 3.5 6.8
11 11 -3 -7.4 4.5
-11 -11 2 25.8 6.4
-11 -11 2 38 11.6
11 11 -2 49 10.1
11 11 -2 28.7 10.2
-11 -11 1 25.8 6.6
11 11 -1 33.2 11.2
11 11 -1 7.8 5.8
-11 -11 0 46.9 9.1
11 11 0 70.69 14.8
-11 -11 -1 23.4 7.2
11 11 1 18.5 6.6
11 11 1 20.3 9.3
-11 -11 -2 40.7 9.5
11 11 2 57.89 14.3
11 11 2 54.19 11
-11 -11 -3 7.6 5.5
11 11 3 6.9 5.3
11 11 3 2 6.7
-11 -11 -4 18.1 7.1
11 11 4 5.2 7.8
11 11 4 16.2 6.4
11 11 4 0.5 5.4
-11 -11 -5 11.5 6.6
11 11 5 3.5 5
11 11 5 20.9 8.2
-11 -11 -6 0.1 5.9
11 11 6 7.7 6.9
11 11 7 22.6 10
-11 -10 8 4.6 6.7
-11 -10 7 23.3 8.8
-11 -10 6 4.5 6
-11 -10 6 -2.2 8
-11 -10 5 45.9 12.7
11 10 -5 20 8
11 10 -5 50.09 11.8
-11 -10 4 19 9.3
11 10 -4 22.6 8.8
11 10 -4 41.2 9.9
-11 -10 3 -0.2 5.8
-11 -10 3 2.6 3.2
11 10 -3 4.7 6.5
11 10 -3 -1.3 4.4
-11 -10 2 25 6.2
-11 -10 2 23.7 8.7
11 10 -2 25.9 9.3
11 10 -2 16.1 6.9
-11 -10 1 98.09 12.6
11 10 -1 90.89 13.7
11 10 -1 111.19 17.9
-11 -10 0 28.9 7
11 10 0 13.7 5.9
11 10 0 6.4 7.5
-11 -10 -1 100.99 13.2
11 10 1 87.29 13.1
11 10 1 86.79 16.7
-11 -10 -2 29.7 7.6
11 10 2 22.1 9.2
11 10 2 19.9 6.9
11 10 2 25.2 9.2
-11 -10 -3 2.8 4.9
11 10 3 -2.1 5.1
11 10 3 -4.4 3
11 10 3 6.3 5.1
-11 -10 -4 14.3 6.3
11 10 4 16.7 8.9
11 10 4 28.5 8.5
11 10 4 17.9 6.3
-11 -10 -5 49.5 9.8
11 10 5 28.9 9.1
11 10 5 47.9 9.1
11 10 5 37.6 11.7
-11 -10 -6 0.9 5.2
11 10 6 0.9 5.2
11 10 6 1.9 5.6
11 10 7 20.5 8.5
11 10 8 -4.5 6.5
-11 -9 9 27.5 10.9
-11 -9 8 22.4 9
-11 -9 7 50.99 12.9
-11 -9 6 12.7 6.8
-11 -9 6 25.7 11.4
-11 -9 5 37.4 12.7
11 9 -5 47.7 11.1
11 9 -5 75.29 11.8
-11 -9 4 46.3 7.1
-11 -9 4 26.9 10.8
11 9 -4 49.3 11.6
11 9 -4 59.09 10.7
-11 -9 3 57.89 8.5
-11 -9 3 54.19 12.8
11 9 -3 47.8 11.9
11 9 -3 62.19 10.9
-11 -9 2 14.7 7.5
-11 -9 2 26.6 6
11 9 -2 19.5 8.1
11 9 -2 20.9 7
-11 -9 1 38.3 7.4
11 9 -1 34.2 8.1
11 9 -1 29 9.2
-11 -9 0 18.5 5.9
11 9 0 31.1 7.7
11 9 0 16.7 7.9
-11 -9 -1 37 7.8
11 9 1 57.09 12.2
11 9 1 37.8 7.2
-11 -9 -2 24.3 6.8
11 9 2 33.1 9.8
11 9 2 18 5.8
11 9 2 22.9 6.4
-11 -9 -3 57.99 10.1
11 9 3 77.99 15.3
11 9 3 41.3 9
11 9 3 72.89 11
-11 -9 -4 31.6 7.7
11 9 4 57.09 12.7
11 9 4 45.9 8.6
11 9 4 25.8 7.6
-11 -9 -5 76.19 11.2
11 9 5 59.19 11.6
11 9 5 62.99 9.7
11 9 5 44.7 12.5
11 9 5 42.4 11
-11 -9 -6 15.8 6.3
11 9 6 14.6 7.7
11 9 6 16.2 8
11 9 7 21.1 7.9
11 9 7 33.4 9.5
11 9 8 9 7.5
11 9 9 54.89 13.9
-11 -8 9 17.8 8.6
-11 -8 8 9.3 7.3
-11 -8 7 15.1 7.4
-11 -8 6 0.7 4.1
11 8 -6 4.2 7
-11 -8 5 13.4 9.1
11 8 -5 20.3 6.9
11 8 -5 5.4 5.9
-11 -8 4 10.9 6.2
-11 -8 4 9.4 3.5
-11 -8 4 25 9.7
11 8 -4 24.1 8.4
11 8 -4 31.4 7.8
-11 -8 3 64.29 8.8
-11 -8 3 81.89 14.2
11 8 -3 59.59 12.3
11 8 -3 72.09 11.2
-11 -8 2 53.19 12.9
-11 -8 2 50.69 11.1
-11 -8 2 44.8 7.7
11 8 -2 36.9 8.1
11 8 -2 47.2 10.9
-11 -8 1 85.19 10.8
-11 -8 1 75.19 13.5
11 8 -1 99.59 15.5
11 8 -1 78.89 11.6
-11 -8 0 -2.8 2.9
11 8 0 -2.8 2.8
11 8 0 0 4.7
11 8 0 0.9 3.2
-11 -8 -1 74.99 11
11 8 1 97.89 16
11 8 1 84.09 12.1
11 8 1 74.79 10.1
-11 -8 -2 43.9 8.5
11 8 2 48.7 11.2
11 8 2 44.7 8.4
11 8 2 52.49 8.7
-11 -8 -3 69.99 10.7
11 8 3 69.89 11.2
11 8 3 69.89 10.5
11 8 3 81.79 14.9
-11 -8 -4 25.2 6.9
11 8 4 19.4 8.2
11 8 4 13.4 6
11 8 4 17.6 5.5
11 8 4 20.1 8.7
-11 -8 -5 6.3 5.6
11 8 5 14.5 4.8
11 8 5 21.3 8.4
11 8 5 12.4 6.1
11 8 5 23.2 7.2
-11 -8 -6 -1 4.3
11 8 6 -1.2 5.2
11 8 6 3.8 4.6
11 8 6 -5.8 4.3
11 8 7 3 5.8
11 8 7 0.7 4.7
11 8 8 4.2 6
11 8 9 3.5 7.2
-11 -7 10 -0.7 6.5
-11 -7 9 20.1 10
-11 -7 8 1.3 6.3
-11 -7 7 25.8 8.2
-11 -7 6 1.5 3.9
11 7 -6 -1.5 4.7
-11 -7 5 74.59 15.3
11 7 -5 61.99 9.9
11 7 -5 54.49 11.7
-11 -7 4 21.7 4.3
-11 -7 4 17.8 8.7
11 7 -4 30.2 7
11 7 -4 20.2 7.4
-11 -7 3 62.69 12.6
-11 -7 3 53.69 7.6
-11 -7 3 67.89 13.6
11 7 -3 64.49 12.2
11 7 -3 60.39 9.8
-11 -7 2 -3.6 3.5
-11 -7 2 -2.5 3.3
-11 -7 2 5.3 3.1
11 7 -2 1.9 3.7
11 7 -2 -3.3 3
-11 -7 1 5.2 3.4
-11 -7 1 1.3 4.8
-11 -7 1 12.3 7.2
11 7 -1 3.8 2.9
11 7 -1 -0.3 4.1
11 7 -1 3 3.8
-11 -7 0 13.7 4.6
11 7 0 13.9 6.6
11 7 0 15.3 5.2
11 7 0 13.2 4
-11 -7 -1 5 3.7
11 7 1 7.4 4
11 7 1 4 3.1
11 7 1 4.1 5.2
-11 -7 -2 -2.7 2.8
11 7 2 0.4 4.3
11 7 2 0.2 3.8
11 7 2 -0.3 2.6
11 7 2 1.1 3.1
-11 -7 -3 68.19 10.4
11 7 3 65.39 9.9
11 7 3 70.39 13.9
11 7 3 64.49 12.5
11 7 3 73.29 10
-11 -7 -4 22.8 6.6
11 7 4 21.8 6.1
11 7 4 17.8 7.4
11 7 4 27 6.1
11 7 4 15.1 7.2
-11 -7 -5 63.79 10.2
11 7 5 40.7 10
11 7 5 55.99 12
11 7 5 66.09 11.8
11 7 5 58.09 8.4
-11 -7 -6 3.1 5.1
11 7 6 6.3 5.1
11 7 6 15.6 5.9
11 7 6 1.1 5.4
11 7 6 9.8 6.6
11 7 7 26 8.3
11 7 7 23.4 6.4
11 7 7 14.4 6.2
11 7 8 10.5 6.8
11 7 9 25.9 9.9
11 7 10 1.7 7.4
-11 -6 10 29.7 10.1
-11 -6 9 119.59 19.1
-11 -6 8 25.8 9.2
-11 -6 7 145.89 18.9
-11 -6 6 44 9.1
11 6 -6 26.2 8.1
11 6 -5 82.19 13.6
11 6 -5 114.89 12.7
-11 -6 4 85.19 8.7
-11 -6 4 86.29 15.2
11 6 -4 82.79 11.3
11 6 -4 81.19 13.5
-11 -6 3 226.98 22.8
-11 -6 3 226.48 17.7
-11 -6 3 212.38 22.1
-11 -6 3 240.48 22.3
11 6 -3 247.08 19.8
11 6 -3 235.68 22
-11 -6 2 0.4 2.3
-11 -6 2 -1.6 4
-11 -6 2 5.2 4.6
-11 -6 2 2.7 4.9
11 6 -2 1.6 3.1
11 6 -2 -0.9 3.9
11 6 -2 -1.3 1.9
-11 -6 1 238.08 18.1
-11 -6 1 206.98 21.9
-11 -6 1 255.37 21.9
-11 -6 1 194.18 21.8
11 6 -1 205.28 18.3
11 6 -1 195.48 20.5
11 6 -1 230.08 16.7
-11 -6 0 438.76 35.1
-11 -6 0 387.06 28.9
11 6 0 398.76 27.9
11 6 0 367.16 29.3
11 6 0 370.76 32.2
-11 -6 -1 205.88 18
11 6 1 214.78 17.4
11 6 1 194.88 20.5
11 6 1 237.18 23.1
11 6 1 225.58 18.6
-11 -6 -2 2.8 4
11 6 2 0.7 4.2
11 6 2 -1.3 2.6
11 6 2 -1.7 3.1
11 6 2 7.3 3.5
-11 -6 -3 283.77 21.3
11 6 3 204.88 22.9
11 6 3 267.37 20.4
11 6 3 232.58 22.8
11 6 3 244.68 20.6
-11 -6 -4 83.49 11.6
11 6 4 86.49 14.7
11 6 4 101.89 13.1
11 6 4 77.69 13.3
11 6 4 86.49 10.7
11 6 4 108.09 17
-11 -6 -5 127.19 14
11 6 5 89.69 15.3
11 6 5 119.99 12.1
11 6 5 81.39 13.2
11 6 5 112.09 14.5
11 6 5 120.49 16.5
-11 -6 -6 48.3 9
11 6 6 45.2 9
11 6 6 35.4 9.1
11 6 6 34 10.1
11 6 6 39.9 9.7
11 6 6 53.39 10.9
11 6 7 115.49 12.9
11 6 7 120.49 16.9
11 6 7 138.49 19.2
11 6 7 126.59 13.2
11 6 8 19.8 8.3
11 6 9 91.69 16.3
11 6 10 30.1 10.2
-11 -5 11 9.2 6.3
-11 -5 10 -6.6 5.7
-11 -5 9 58.59 12.4
-11 -5 9 89.39 14.9
-11 -5 8 42.8 9.7
-11 -5 8 26.7 9.1
-11 -5 7 59.39 11.3
-11 -5 7 45.9 10.5
-11 -5 6 200.68 21.3
-11 -5 6 192.98 21.4
11 5 -6 202.68 20.1
-11 -5 5 44.4 8.9
11 5 -5 18.9 6.8
11 5 -5 31.4 6.4
-11 -5 4 141.39 19.8
-11 -5 4 139.99 11.3
-11 -5 4 161.88 17
11 5 -4 136.99 14.7
11 5 -4 168.98 19.3
-11 -5 3 20.8 6.1
-11 -5 3 15.6 3.8
-11 -5 3 23.4 6.1
-11 -5 3 7.2 5.8
11 5 -3 21.9 5.4
11 5 -3 14.2 6.2
-11 -5 2 14.1 5.9
-11 -5 2 27.8 7.7
-11 -5 2 20.7 4.6
-11 -5 2 32 8.1
-11 -5 2 21.1 6
11 5 -2 25.8 7.2
11 5 -2 20.4 8
11 5 -2 22 9.4
11 5 -2 24.5 5.4
-11 -5 1 106.69 15.5
-11 -5 1 157.18 17.6
-11 -5 1 159.38 13.2
-11 -5 1 150.58 17.5
11 5 -1 142.39 14.9
11 5 -1 133.69 11.8
11 5 -1 154.88 18.5
11 5 -1 169.18 22.8
11 5 -1 148.59 17.1
-11 -5 0 2.1 5.4
-11 -5 0 -2.6 3.9
-11 -5 0 -0.6 2.6
-11 -5 0 0.4 3.2
11 5 0 -5.3 13.7
11 5 0 1 3.6
11 5 0 1.9 2.6
11 5 0 2.7 5.2
11 5 0 -2.9 1.7
-11 -5 -1 113.39 17.1
-11 -5 -1 142.09 18.7
-11 -5 -1 152.88 13
11 5 1 129.39 17.8
11 5 1 146.89 11.9
11 5 1 116.19 12.8
11 5 1 82.09 16.3
11 5 1 114.09 15.6
-11 -5 -2 21 5.5
-11 -5 -2 9.1 8
11 5 2 20.2 6.7
11 5 2 22.9 5.1
11 5 2 18.8 4.6
11 5 2 17.6 8.2
11 5 2 16.7 6.7
-11 -5 -3 17 5.2
11 5 3 16.3 5.1
11 5 3 14.8 6.3
11 5 3 15 4.3
11 5 3 15.6 6.1
11 5 3 15.9 7.3
-11 -5 -4 122.39 14.4
11 5 4 131.29 12.5
11 5 4 121.89 14.7
11 5 4 163.28 19.2
11 5 4 153.18 17.7
11 5 4 134.59 15.7
-11 -5 -5 24.9 6.6
11 5 5 41.2 6.4
11 5 5 34.3 8.5
11 5 5 27 8.3
11 5 5 31.5 7.4
11 5 5 37.7 9.2
-11 -5 -6 170.98 18.5
11 5 6 186.98 18.8
11 5 6 224.18 20
11 5 6 216.98 23.5
11 5 6 188.58 18.2
11 5 7 48.2 10.6
11 5 7 53.69 8.2
11 5 7 48 8
11 5 7 38.9 10
11 5 8 61.99 12.5
11 5 9 74.79 14.5
11 5 10 -0.8 5
11 5 11 22.5 10.4
-11 -4 11 0.3 6.6
-11 -4 11 1.9 6.1
-11 -4 10 17.5 9.2
-11 -4 10 4.5 6.3
-11 -4 9 7.5 6.7
-11 -4 9 12.3 7.8
-11 -4 8 21.2 8.1
-11 -4 8 8 6.1
-11 -4 7 193.98 21.8
-11 -4 7 211.28 20.3
11 4 -7 206.58 20.6
-11 -4 6 7.5 5.1
-11 -4 6 11.7 5.6
11 4 -6 10.2 6.3
-11 -4 5 185.28 18.4
11 4 -5 137.89 18.1
11 4 -5 149.49 13.7
-11 -4 4 71.29 10.7
-11 -4 4 74.49 6.8
11 4 -4 91.29 13.6
11 4 -4 80.79 10
-11 -4 3 641.84 43.8
-11 -4 3 574.74 36.5
-11 -4 3 502.05 38.4
-11 -4 3 541.75 40.1
11 4 -3 513.05 37.5
11 4 -3 543.15 41.2
11 4 -3 517.55 41.8
-11 -4 2 22.2 5.7
-11 -4 2 12.3 5.9
-11 -4 2 16.1 6.6
-11 -4 2 22.7 4.6
11 4 -2 16.6 4.6
11 4 -2 19.1 7
11 4 -2 15.1 7.4
11 4 -2 12.9 5.4
-11 -4 1 68.99 11.7
-11 -4 1 81.69 13.8
-11 -4 1 79.99 13.1
-11 -4 1 92.99 10.6
-11 -4 1 110.19 9.5
11 4 -1 79.99 15.4
11 4 -1 75.69 9.8
11 4 -1 94.69 14.4
11 4 -1 70.99 11.6
-11 -4 0 90.89 10.5
-11 -4 0 121.39 10
-11 -4 0 82.49 14.3
-11 -4 0 95.69 13.4
-11 -4 0 90.29 14.7
11 4 0 151.38 23
11 4 0 72.89 8.8
11 4 0 72.19 14.2
11 4 0 83.09 10.3
11 4 0 84.79 13
-11 -4 -1 67.29 9.1
-11 -4 -1 59.89 10
-11 -4 -1 70.19 11.9
11 4 1 80.49 9.6
11 4 1 77.29 9
11 4 1 154.38 25.6
11 4 1 99.89 13.4
-11 -4 -2 14.7 6.3
-11 -4 -2 10.2 4.6
-11 -4 -2 7.5 5.4
11 4 2 19.6 6.4
11 4 2 15.5 4.1
11 4 2 25.8 8.9
11 4 2 17 6.9
11 4 2 15.5 4.3
-11 -4 -3 518.65 40.8
-11 -4 -3 549.54 36.6
-11 -4 -3 508.75 41.7
11 4 3 462.95 38.4
11 4 3 473.75 39.2
11 4 3 500.45 36.3
11 4 3 519.35 35.9
11 4 3 552.64 40.9
-11 -4 -4 79.29 10.2
11 4 4 69.69 10
11 4 4 92.79 13.3
11 4 4 64.19 11.1
11 4 4 79.59 9.3
11 4 4 83.99 13.3
-11 -4 -5 172.88 15.6
11 4 5 189.38 14.3
11 4 5 165.68 19.7
11 4 5 154.98 16.6
11 4 5 155.68 17.4
11 4 5 185.28 17
-11 -4 -6 11 5.3
11 4 6 4.9 3.8
11 4 6 8 5.2
11 4 6 1.7 4.5
11 4 6 6.2 4
11 4 7 187.08 21.9
11 4 7 180.18 20.9
11 4 8 24.6 8.1
11 4 9 16 8.2
11 4 10 3.7 6.1
11 4 11 -0.7 6.4
-11 -3 11 4.5 6.8
-11 -3 11 1.4 5.4
-11 -3 10 36.2 10.2
-11 -3 10 43.7 10.9
-11 -3 9 100.39 15.7
-11 -3 9 58.99 12
-11 -3 8 67.39 12.7
-11 -3 8 65.49 11.6
-11 -3 7 19.8 6.9
-11 -3 7 21.5 7.4
11 3 -7 27 8.5
-11 -3 6 13.5 5.7
-11 -3 6 5.8 4.5
11 3 -6 5.8 5.7
-11 -3 5 20.7 6.4
11 3 -5 36.3 8.7
-11 -3 4 110.89 13.6
-11 -3 4 119.99 8.9
-11 -3 4 114.09 11.6
11 3 -4 122.99 15.7
-11 -3 3 154.58 12.4
-11 -3 3 171.58 15
-11 -3 3 181.98 16.3
11 3 -3 144.99 16.8
11 3 -3 145.29 18.3
-11 -3 2 24.1 5.4
-11 -3 2 26 4.8
-11 -3 2 31 7.9
-11 -3 2 30.7 8
11 3 -2 23.4 6.9
11 3 -2 25.3 8.8
11 3 -2 25.1 5.2
11 3 -2 23.4 7
-11 -3 1 210.78 22.4
-11 -3 1 282.57 19.2
-11 -3 1 206.18 17.8
-11 -3 1 240.58 21.5
11 3 -1 213.88 23.5
11 3 -1 236.48 21.2
11 3 -1 239.18 18.3
11 3 -1 261.77 22.8
-11 -3 0 17.4 6.1
-11 -3 0 29.3 5.4
-11 -3 0 36 9.8
-11 -3 0 38.2 8.3
-11 -3 0 28 5.6
11 3 0 20.2 6.7
11 3 0 31.3 7
11 3 0 31.6 9.9
11 3 0 36.5 6.2
-11 -3 -1 177.18 19.9
-11 -3 -1 205.98 16.8
-11 -3 -1 293.77 20
-11 -3 -1 203.58 15.6
-11 -3 -1 187.28 21
11 3 1 207.48 19
11 3 1 192.28 19.8
11 3 1 201.28 16.2
11 3 1 222.88 16.9
-11 -3 -2 21.8 5.2
-11 -3 -2 24.6 4.2
-11 -3 -2 15.9 6.2
-11 -3 -2 35.5 9.1
11 3 2 24 4.9
11 3 2 22.8 7.4
11 3 2 15.1 5.1
11 3 2 25.5 6.9
11 3 2 25.5 5.1
-11 -3 -3 155.58 18.2
-11 -3 -3 151.58 19.4
-11 -3 -3 164.48 14.7
11 3 3 185.38 17.9
11 3 3 160.28 14.6
11 3 3 148.59 17.7
11 3 3 170.98 18.9
11 3 3 206.68 14.8
-11 -3 -4 100.69 23.9
-11 -3 -4 113.49 12.7
11 3 4 115.49 15.2
11 3 4 114.39 10.7
11 3 4 114.79 13.1
11 3 4 116.19 13.7
11 3 4 113.39 14.2
-11 -3 -5 28.3 6.4
11 3 5 22.3 4.5
11 3 5 29.8 6.8
11 3 5 30.4 7.5
11 3 5 34.7 7.4
11 3 5 28.5 7.6
-11 -3 -6 3.1 4.1
11 3 6 5.3 4.2
11 3 6 7.6 4.7
11 3 6 10.6 4.4
11 3 6 7.9 4.8
11 3 7 23.9 7.3
11 3 7 33.4 9.1
11 3 8 92.19 15
11 3 9 75.79 14.5
11 3 10 44.6 11.3
11 3 11 6.6 7.3
-11 -2 11 10.9 8.4
-11 -2 11 -1.5 6.2
-11 -2 10 16.6 6.9
-11 -2 10 0 4.7
-11 -2 9 -2.9 4.6
-11 -2 9 14.5 7
-11 -2 8 56.69 11
-11 -2 8 53.49 10.8
-11 -2 7 29.6 7.5
-11 -2 7 34.2 8.6
11 2 -7 17.3 7.7
-11 -2 6 3.9 3.6
-11 -2 6 2.1 4.7
11 2 -6 -1.1 4.8
-11 -2 5 100.69 13.6
11 2 -5 130.79 17.1
-11 -2 4 44.1 4.4
-11 -2 4 47.2 8.7
-11 -2 4 40.7 6.5
11 2 -4 40.6 9.4
-11 -2 3 609.04 42.9
-11 -2 3 634.04 43.9
-11 -2 3 637.34 40.3
11 2 -3 581.94 45.4
11 2 -3 593.94 45.3
-11 -2 2 18.1 3.9
-11 -2 2 11 4.3
-11 -2 2 16.4 6
11 2 -2 19.2 6.2
11 2 -2 27.4 9.1
11 2 -2 11.3 5
-11 -2 1 260.07 22.5
-11 -2 1 277.47 19.8
-11 -2 1 248.78 23.1
-11 -2 1 211.88 18.6
11 2 -1 243.38 22
11 2 -1 298.37 24
11 2 -1 235.68 23.8
-11 -2 0 611.04 38.4
-11 -2 0 457.35 34.7
-11 -2 0 426.76 39.1
-11 -2 0 463.25 35.1
11 2 0 565.24 39.7
11 2 0 474.65 38
11 2 0 533.95 35.5
11 2 0 634.64 44.5
-11 -2 -1 234.88 21
-11 -2 -1 184.28 17
-11 -2 -1 237.98 22
-11 -2 -1 217.58 16.4
-11 -2 -1 188.88 15
11 2 1 182.38 17.9
11 2 1 134.09 20.6
11 2 1 189.68 15.9
11 2 1 223.38 20
-11 -2 -2 7.5 3.7
-11 -2 -2 18.3 5.7
-11 -2 -2 19.7 7.2
-11 -2 -2 9.2 4.9
-11 -2 -2 23.4 3.9
11 2 2 22.8 4.7
11 2 2 20.8 5.9
11 2 2 23.4 7.7
11 2 2 29.5 5.3
11 2 2 19.6 7.3
-11 -2 -3 564.24 36.7
-11 -2 -3 603.14 39.5
-11 -2 -3 562.34 43.7
-11 -2 -3 522.55 43.5
11 2 3 563.34 39.5
11 2 3 593.84 43.3
11 2 3 578.44 41.5
11 2 3 576.24 42.5
11 2 3 564.04 38.8
-11 -2 -4 34.6 10
-11 -2 -4 34.1 6.3
11 2 4 27.9 7.2
11 2 4 27.4 5.2
11 2 4 43.9 8.2
11 2 4 32.4 7.6
11 2 4 35.9 6.9
-11 -2 -5 102.29 11.8
11 2 5 81.19 12
11 2 5 99.19 12
11 2 5 113.39 9.5
11 2 5 100.79 13.5
11 2 5 107.19 12.7
-11 -2 -6 10.6 4.6
11 2 6 6.7 3.6
11 2 6 6 4.2
11 2 6 13.8 5
11 2 6 6.7 3.5
11 2 7 28 7.4
11 2 8 65.99 12.1
11 2 9 22.6 7.2
11 2 10 30.2 9.5
11 2 11 3.5 6.9
-11 -1 11 12.5 7.1
-11 -1 10 5.9 6.4
-11 -1 10 11.6 6.2
-11 -1 10 10.7 7.3
-11 -1 9 23.3 8
-11 -1 9 20.3 7.5
-11 -1 8 13.2 6
-11 -1 8 15 6.3
11 1 -8 6.7 6.6
-11 -1 7 3.9 4.8
-11 -1 7 3.3 4.2
11 1 -7 10.5 6.4
-11 -1 6 21 5.7
-11 -1 6 19.6 7
11 1 -6 19.3 7.6
-11 -1 5 133.29 12.5
-11 -1 5 129.19 15.6
11 1 -5 155.58 19.4
-11 -1 4 86.69 6.7
-11 -1 4 99.09 9.6
-11 -1 4 106.59 12.9
11 1 -4 85.99 13.8
-11 -1 3 270.67 24.1
-11 -1 3 340.77 22
-11 -1 3 333.47 25.5
11 1 -3 310.87 27.3
-11 -1 2 366.46 28.8
-11 -1 2 358.86 26.5
-11 -1 2 334.67 24.9
11 1 -2 368.36 29.8
-11 -1 1 6.4 3
-11 -1 1 4.2 4.3
-11 -1 1 9.7 3.6
11 1 -1 3.6 4.3
11 1 -1 5.4 6
11 1 -1 15.6 5.9
-11 -1 0 226.38 17.5
-11 -1 0 198.38 21.1
-11 -1 0 216.08 17.2
-11 -1 0 248.08 20.1
11 1 0 234.88 20.2
11 1 0 229.58 21.3
11 1 0 214.08 21.3
-11 -1 -1 10.3 4.7
-11 -1 -1 9.2 3.6
-11 -1 -1 2.9 2.6
-11 -1 -1 9.4 7.2
11 1 1 7.5 4.3
11 1 1 1.4 3.7
11 1 1 8.3 4.6
-11 -1 -2 198.48 21.4
-11 -1 -2 204.48 17.8
-11 -1 -2 215.08 17.5
-11 -1 -2 228.28 16.2
11 1 2 220.78 20.6
11 1 2 247.58 17.9
11 1 2 219.48 17.2
11 1 2 228.88 21.5
11 1 2 242.68 20.1
-11 -1 -3 217.28 23
-11 -1 -3 245.18 19.9
-11 -1 -3 267.07 17.8
-11 -1 -3 282.47 20.5
11 1 3 254.27 20.1
11 1 3 254.37 22.9
11 1 3 274.97 19.7
11 1 3 252.27 21.6
11 1 3 280.27 23.7
-11 -1 -4 128.99 12.3
-11 -1 -4 75.99 13.6
11 1 4 94.39 12.7
11 1 4 110.89 12.8
11 1 4 87.49 12.8
11 1 4 107.69 12.1
11 1 4 106.89 9.6
-11 -1 -5 144.99 12.9
11 1 5 130.79 14.5
11 1 5 138.09 14.2
11 1 5 118.79 10.8
11 1 5 150.78 14.2
11 1 5 123.89 14.1
-11 -1 -6 21.1 5.2
11 1 6 16.5 5.5
11 1 6 16.9 4.8
11 1 6 19.7 5.7
11 1 6 12.6 4.1
11 1 7 6.6 4.8
11 1 8 21.9 7.4
11 1 9 15.6 7.5
11 1 10 22.6 8.8
11 1 11 9 7.6
-11 0 11 -3.4 5.1
-11 0 11 0.5 5.5
-11 0 10 0 4.4
-11 0 10 -3 4.7
-11 0 9 -4.2 4.1
-11 0 9 -4.6 3.8
-11 0 8 1.6 4.4
-11 0 8 -4.4 4.1
-11 0 8 -2 3.2
11 0 -8 4.5 5.7
-11 0 7 3.1 3.9
-11 0 7 -2.8 3.9
11 0 -7 1.2 5.2
-11 0 6 1.1 4.2
-11 0 6 -0.8 2.9
11 0 -6 2.1 5.4
-11 0 5 -0.4 2.3
-11 0 5 -0.4 4.3
11 0 -5 0.4 4.6
-11 0 4 0 1
-11 0 4 -0.5 3.2
-11 0 4 -0.9 2.5
11 0 -4 3.8 4.9
-11 0 3 -0.4 1.6
-11 0 3 -0.2 3.6
-11 0 3 1.1 3.5
11 0 -3 -1.8 3.6
-11 0 2 -2.3 4.2
-11 0 2 -3.7 2.2
-11 0 2 -0.5 2.1
11 0 -2 1.5 4
11 0 -2 3.1 3.8
-11 0 1 -1.2 2.8
-11 0 1 0.6 4.7
-11 0 1 4 3
11 0 -1 -1.4 4.1
11 0 -1 5.1 4.8
-11 0 0 -4 2.2
-11 0 0 -2.9 6.1
11 0 0 0.4 3.4
11 0 0 7 4.5
11 0 0 1.4 4.2
-11 0 -1 -3.9 4.3
-11 0 -1 3.6 3.8
-11 0 -1 -0.1 2.6
11 0 1 0.7 3.3
11 0 1 -0.8 2.4
11 0 1 -1.4 3.1
-11 0 -2 -0.5 2.6
-11 0 -2 0.8 3.3
-11 0 -2 3.8 5.5
11 0 2 -2.1 2.5
11 0 2 -1.2 3.4
11 0 2 -1 2.5
-11 0 -3 1.4 2.7
-11 0 -3 -2.3 4.4
-11 0 -3 -2.4 2.6
11 0 3 -1.1 2
11 0 3 -1.7 1.9
11 0 3 -1.9 3
11 0 3 -0.4 2.9
11 0 3 -1.6 2.9
-11 0 -4 2.6 2.9
-11 0 -4 0.3 1.5
-11 0 -4 -1.3 2.5
-11 0 -4 -0.2 4.6
11 0 4 -0.9 2.2
11 0 4 1.6 2.2
11 0 4 -1.6 2.9
11 0 4 0.3 2.8
11 0 4 2.3 3.1
-11 0 -5 -1.2 2.9
11 0 5 -1.7 2.9
11 0 5 3.5 3.6
11 0 5 1.1 2.9
11 0 5 -0.4 2.8
11 0 5 -0.4 1.9
-11 0 -6 3.3 3.5
11 0 6 -0.7 2.6
11 0 6 2.1 3.6
11 0 6 -1.8 2.2
11 0 7 -0.1 3.1
11 0 8 -7.8 3.7
11 0 9 0.6 4.9
11 0 10 -4.1 5.1
11 0 11 -2 6.1
-11 1 11 17.8 8.1
-11 1 11 9.3 6.2
-11 1 10 16.3 7.3
-11 1 10 4.8 5.4
-11 1 9 11.4 7.2
-11 1 9 17.9 6.8
-11 1 8 7 5.1
-11 1 8 11.7 6.2
11 -1 -8 7.1 6.5
-11 1 7 9 4.4
-11 1 7 10.8 6.3
11 -1 -7 3.7 5.6
-11 1 6 12.1 4.2
-11 1 6 15.6 6
11 -1 -6 21.6 7.3
-11 1 5 131.89 12
-11 1 5 138.89 15.8
11 -1 -5 146.59 19.2
-11 1 4 92.59 7
-11 1 4 92.69 10
-11 1 4 118.19 13.3
11 -1 -4 88.19 14.4
-11 1 3 299.37 24.3
-11 1 3 278.97 20.4
11 -1 -3 303.87 26.3
-11 1 2 258.07 21.7
-11 1 2 304.17 26.1
11 -1 -2 335.17 26.8
11 -1 -2 380.46 28
-11 1 1 12.4 3.6
-11 1 1 6.1 6
11 -1 -1 6.4 5.5
11 -1 -1 10 5
-11 1 0 254.67 17.6
11 -1 0 174.48 19.1
-11 1 -1 11.4 3.8
-11 1 -1 3.4 5.5
11 -1 1 6.7 4.6
11 -1 1 2.1 3.7
-11 1 -2 216.58 21.4
-11 1 -2 229.38 17.9
11 -1 2 237.68 21.5
11 -1 2 212.18 19.7
11 -1 2 230.38 21.5
-11 1 -3 274.57 19.9
-11 1 -3 279.67 20.4
-11 1 -3 250.27 23.9
11 -1 3 263.47 20.3
11 -1 3 259.17 23.2
11 -1 3 249.97 23.1
11 -1 3 261.27 21.6
-11 1 -4 94.59 10.7
-11 1 -4 93.69 15
-11 1 -4 97.29 9.1
11 -1 4 102.89 12.5
11 -1 4 83.79 12.1
11 -1 4 97.29 9.1
11 -1 4 97.29 11.1
11 -1 4 98.79 13.9
-11 1 -5 134.09 12.5
11 -1 5 133.89 13.8
11 -1 5 117.19 13.6
11 -1 5 133.99 10.7
11 -1 5 134.29 12.7
11 -1 5 118.09 13.4
-11 1 -6 16 4.7
11 -1 6 14.8 5.1
11 -1 6 10.7 3.9
11 -1 6 8.3 3.7
11 -1 7 12.1 5.1
11 -1 8 9.9 5.8
11 -1 9 17.7 7.4
11 -1 10 17.1 8.4
11 -1 11 34.5 11.3
-11 2 11 -0.8 5.1
-11 2 11 -7.2 6.2
-11 2 10 17.6 7.4
-11 2 10 9.4 5.9
-11 2 9 9.4 5.8
-11 2 9 4.7 5.9
11 -2 -9 9.4 9.3
-11 2 8 65.09 10.8
-11 2 8 75.39 12.9
11 -2 -8 67.89 14.2
-11 2 7 17 5.9
-11 2 7 16 7.2
11 -2 -7 24.2 8.5
-11 2 6 3.3 4.5
11 -2 -6 -0.4 4.9
-11 2 5 92.79 9.3
11 -2 -5 109.29 16.1
-11 2 4 35.7 6.7
-11 2 4 37.3 5.1
-11 2 4 42 4.4
11 -2 -4 50.39 10.8
-11 2 3 609.54 44.4
-11 2 3 621.14 40.6
11 -2 -3 610.44 46.7
-11 2 2 30.3 5.3
-11 2 2 16 7.2
11 -2 -2 25.3 8
11 -2 -2 26.9 8.1
-11 2 1 293.77 24.9
-11 2 1 256.77 20
11 -2 -1 304.37 24.6
11 -2 -1 202.98 22.5
-11 2 0 556.94 41.1
-11 2 0 539.55 36.8
11 -2 0 465.35 39.6
11 -2 0 561.64 40.5
-11 2 -1 216.48 16.7
-11 2 -1 187.68 20
11 -2 1 210.28 19.2
-11 2 -2 18.5 6.8
-11 2 -2 13.3 3.9
11 -2 2 13.9 5.8
11 -2 2 19 6.3
-11 2 -3 571.44 39.4
-11 2 -3 558.84 43.2
11 -2 3 558.04 42.3
11 -2 3 587.24 43.3
11 -2 3 571.64 41.1
-11 2 -4 18.7 6.2
-11 2 -4 25.6 5.6
11 -2 4 38 8.2
11 -2 4 40 7.4
11 -2 4 40.4 5.9
11 -2 4 37.3 7.7
11 -2 4 43.3 6.6
-11 2 -5 89.49 11
11 -2 5 94.99 8.8
11 -2 5 93.49 11.5
11 -2 5 98.19 13
11 -2 5 94.69 11.7
11 -2 5 121.09 11.3
-11 2 -6 4.7 3.8
11 -2 6 10.1 4.2
11 -2 6 6.1 3.7
11 -2 6 3.6 3.6
11 -2 7 14 5.6
11 -2 8 53.69 10.8
11 -2 9 8.9 6
11 -2 10 4.4 6
11 -2 11 3.6 6.2
-11 3 11 5.2 7.1
-11 3 11 10.8 7.4
-11 3 10 38.8 9.3
-11 3 10 21.1 8.2
-11 3 9 56.59 12
11 -3 -9 71.59 15.7
-11 3 8 77.79 13.5
-11 3 8 91.99 13
11 -3 -8 60.29 14.2
-11 3 7 15.1 6.1
-11 3 7 14.8 6.9
11 -3 -7 23.3 9
-11 3 6 6.1 4.4
11 -3 -6 11.1 7.8
11 -3 -5 21.8 8.4
-11 3 4 113.29 8.8
-11 3 4 103.19 12.2
11 -3 -4 117.49 17.7
-11 3 3 191.78 14.7
-11 3 3 182.78 18.4
11 -3 -3 179.28 22.2
-11 3 2 24 5
-11 3 2 29.3 8.6
11 -3 -2 28.1 8.2
11 -3 -2 33.3 8.6
-11 3 1 262.57 23.1
-11 3 1 205.78 17.9
11 -3 -1 204.18 21.8
11 -3 -1 265.87 22.7
-11 3 0 27.6 8
-11 3 0 32 5.7
11 -3 0 24.9 7.2
11 -3 0 18.1 6.5
-11 3 -1 214.58 17.2
-11 3 -1 216.98 21
11 -3 1 196.58 19.6
-11 3 -2 25.8 8.3
-11 3 -2 28.3 5.7
11 -3 2 28 7
11 -3 2 26.3 7.6
-11 3 -3 171.58 18.6
-11 3 -3 163.88 14.8
11 -3 3 175.08 17.8
11 -3 3 176.08 16.4
-11 3 -4 112.29 12.2
-11 3 -4 83.79 17.1
11 -3 4 126.69 12.8
11 -3 4 99.09 15
11 -3 4 135.49 12.8
11 -3 4 111.99 15
-11 3 -5 33.4 6.3
11 -3 5 31.7 10
11 -3 5 35.4 6.5
11 -3 5 19.9 6.2
11 -3 5 19.4 6
11 -3 5 24.8 4.6
11 -3 5 32.1 7.4
-11 3 -6 4.2 3.8
11 -3 6 9 4.2
11 -3 6 6.6 4.2
11 -3 6 5.1 4.2
11 -3 6 11.7 5.6
11 -3 7 22.3 8
11 -3 7 24 6.7
11 -3 8 83.49 14.2
11 -3 8 102.19 14.2
11 -3 9 96.99 14.4
11 -3 9 64.99 13.9
11 -3 10 60.99 13.4
11 -3 10 31.5 9.6
11 -3 11 14.9 7.9
11 -3 11 7.4 8.3
-11 4 11 7.6 6.1
-11 4 11 8 7.9
-11 4 10 9.2 6.8
-11 4 10 9.1 5.7
-11 4 9 14.6 7.9
-11 4 9 18.9 6.9
11 -4 -9 20.6 10.6
-11 4 8 27.6 7.7
-11 4 8 2.2 5.2
11 -4 -8 18.6 9.9
-11 4 7 197.98 18.6
11 -4 -7 181.58 24.5
-11 4 6 9.6 5.3
11 -4 -6 19 8.5
11 -4 -5 201.28 25.6
-11 4 4 77.89 11.7
-11 4 4 88.79 7.9
11 -4 -4 79.19 15.2
-11 4 3 552.84 39
-11 4 3 585.64 43.1
11 -4 -3 615.24 46.1
-11 4 2 17.3 4.5
-11 4 2 22.4 7.8
11 -4 -2 9.4 6.2
11 -4 -2 8.3 5.1
-11 4 1 99.09 15
-11 4 1 78.99 9.8
11 -4 -1 68.09 12.6
11 -4 -1 68.09 12
-11 4 0 69.89 9.4
-11 4 0 100.99 14.8
11 -4 0 95.49 14.8
-11 4 -1 56.79 8.1
11 -4 1 111.59 14.1
11 -4 1 40.1 9.1
-11 4 -2 15.7 6.9
-11 4 -2 11.5 3.9
11 -4 2 6.1 4.9
11 -4 2 14.6 5.7
-11 4 -3 545.45 36.9
-11 4 -3 480.85 40.7
11 -4 3 513.05 38.1
11 -4 3 531.45 36.3
11 -4 3 507.85 39.5
-11 4 -4 54.99 9.1
11 -4 4 82.19 11.3
11 -4 4 108.59 11
11 -4 4 77.59 12.3
11 -4 4 85.59 10.9
-11 4 -5 160.88 14.7
11 -4 5 139.89 13.8
11 -4 5 152.68 17
11 -4 5 152.08 16.4
11 -4 5 173.28 17.2
-11 4 -6 15.6 5.1
11 -4 6 3.8 5
11 -4 6 4.5 3.6
11 -4 6 3.7 3.5
11 -4 6 12.9 4.9
11 -4 7 198.38 21.7
11 -4 7 167.78 16.8
11 -4 8 13 7.2
11 -4 8 14 6.2
11 -4 9 46.2 12.4
11 -4 9 25.1 8.2
11 -4 10 7.4 7.5
11 -4 11 7.8 8.5
-11 5 11 21.7 9.4
-11 5 11 25.5 9.1
-11 5 10 1.1 4.7
-11 5 10 0.3 6.4
-11 5 9 66.49 12.3
-11 5 9 66.29 13
11 -5 -9 83.49 17.7
-11 5 8 46.1 9.4
11 -5 -8 45.2 13.5
-11 5 7 62.79 10.6
11 -5 -7 60.49 14.6
-11 5 6 180.68 17
11 -5 -6 169.08 23.6
-11 5 5 44.6 8
-11 5 5 41.6 6.9
11 -5 -5 28 10.2
-11 5 4 158.38 16.7
-11 5 4 142.39 12.3
11 -5 -4 160.08 21.7
-11 5 3 18.6 7.7
-11 5 3 21.4 5.1
11 -5 -3 22.5 8.3
-11 5 2 19.1 4.7
-11 5 2 13.7 6.8
11 -5 -2 21.1 8.1
11 -5 -2 8 3.4
-11 5 1 156.88 18
-11 5 1 134.69 13.1
11 -5 -1 139.69 19
-11 5 0 0.1 4.2
-11 5 0 -1.2 2.4
11 -5 0 1.9 4.5
11 -5 0 6.6 5.4
-11 5 -1 147.89 13.2
-11 5 -1 144.29 16.8
11 -5 1 149.79 18.3
11 -5 1 98.19 16.1
-11 5 -2 14 4.6
-11 5 -2 19.6 8.2
11 -5 2 12.6 5.9
11 -5 2 18.9 4.8
11 -5 2 24 7.3
-11 5 -3 21.5 5.3
11 -5 3 21.5 7.1
11 -5 3 21.2 6.7
-11 5 -4 129.59 14.2
11 -5 4 109.19 13.7
11 -5 4 129.89 15.6
11 -5 4 139.09 15.6
11 -5 4 131.09 11.9
-11 5 -5 30.8 6.9
11 -5 5 37.9 7.8
11 -5 5 36.7 8.7
11 -5 5 37.7 6.7
11 -5 5 26.8 7.5
-11 5 -6 178.98 18.5
11 -5 6 173.38 17.9
11 -5 6 211.78 19.4
11 -5 6 174.08 16.2
11 -5 6 188.78 17.7
11 -5 7 38.4 6.8
11 -5 7 57.29 11.3
11 -5 7 48.4 9
11 -5 8 30 9.6
11 -5 8 47.6 9.4
11 -5 9 88.79 15.9
11 -5 10 3.7 6.6
11 -5 11 17.6 9.4
-11 6 10 41.8 11.7
-11 6 10 43.9 10.5
11 -6 -10 21.9 12.5
-11 6 9 159.38 19.8
11 -6 -9 138.19 23.3
-11 6 8 26.9 7.9
11 -6 -8 1.7 7.8
-11 6 7 116.79 15.3
11 -6 -7 122.39 20.8
-11 6 6 50.49 9.8
11 -6 -6 43.4 12.5
-11 6 5 102.29 11.6
-11 6 5 118.59 13.4
11 -6 -5 108.49 18.4
-11 6 4 96.49 10.5
-11 6 4 111.39 16.1
11 -6 -4 77.69 16.2
-11 6 3 244.58 24.2
-11 6 3 257.17 19.8
11 -6 -3 234.88 27.8
-11 6 2 5.4 3.2
-11 6 2 -2.8 4.5
11 -6 -2 -2.4 5.1
-11 6 1 210.78 18.3
-11 6 1 203.48 22.3
11 -6 -1 256.97 23.8
-11 6 0 423.56 31.2
-11 6 0 441.56 36
11 -6 0 386.06 34.9
-11 6 -1 247.08 20
11 -6 1 226.48 17.5
11 -6 1 230.28 22.5
-11 6 -2 -1.9 2.9
11 -6 2 1.9 4.5
11 -6 2 -0.8 2.6
-11 6 -3 248.48 20.8
11 -6 3 232.08 22.3
11 -6 3 245.08 19.9
-11 6 -4 93.69 12
11 -6 4 64.39 12
11 -6 4 71.99 11.7
11 -6 4 110.69 13.3
-11 6 -5 97.29 12.7
11 -6 5 110.99 14.3
11 -6 5 117.09 12.3
11 -6 5 97.99 14.8
-11 6 -6 43.5 8.8
11 -6 6 38.8 9.7
11 -6 6 33.4 7
11 -6 6 45.1 9.6
11 -6 6 39 8.7
11 -6 7 120.39 13.1
11 -6 7 139.69 13.8
11 -6 7 122.19 17.6
11 -6 7 147.49 15.8
11 -6 8 10.9 7.3
11 -6 9 115.09 18
11 -6 10 21.6 10.6
-11 7 10 -1.3 5.4
11 -7 -10 28.6 14.9
-11 7 9 18.7 7.9
11 -7 -9 19.2 11.7
-11 7 8 3.6 5.2
11 -7 -8 0.5 9.3
-11 7 7 21.8 8
11 -7 -7 16.8 10.1
-11 7 6 6 5
11 -7 -6 4.9 7.8
-11 7 5 73.99 11.9
-11 7 5 90.19 13.6
11 -7 -5 41.5 13.7
-11 7 4 25.8 5.6
-11 7 4 30 9.1
-11 7 4 19.1 6.6
11 -7 -4 15.4 8.7
-11 7 3 60.39 9
-11 7 3 78.39 13.4
11 -7 -3 58.69 13.9
-11 7 2 1 3.3
-11 7 2 -0.8 5.5
11 -7 -2 3.3 6.3
-11 7 1 7.5 6.4
-11 7 1 4.2 3.6
11 -7 -1 5.6 6.2
-11 7 0 19.4 5.5
11 -7 0 17.2 8.7
-11 7 -1 5.6 4
11 -7 1 4.8 3.3
11 -7 1 6.9 6.2
-11 7 -2 3.2 3.9
11 -7 2 -4.1 4.7
11 -7 2 0.6 3.1
-11 7 -3 65.69 10.6
11 -7 3 52.89 11.2
11 -7 3 66.39 9.6
-11 7 -4 24.6 6.6
11 -7 4 4 8.3
11 -7 4 28.9 7.3
-11 7 -5 60.19 10.2
11 -7 5 52.89 8.1
11 -7 5 68.59 11.3
-11 7 -6 2.1 4.7
11 -7 6 7.5 6.1
11 -7 6 1.7 4.3
11 -7 7 33.1 8
11 -7 7 12.8 5.3
11 -7 7 23.3 8.1
11 -7 8 -2.1 5.7
11 -7 9 9.7 8.8
11 -7 10 6.3 8.1
-11 8 9 17.7 8.1
11 -8 -9 -2.2 9.1
-11 8 8 1.2 5.2
11 -8 -8 8.2 9.2
-11 8 7 2.6 5.9
11 -8 -7 7.1 9.6
-11 8 6 3.8 4.9
-11 8 6 -0.8 4.3
-11 8 6 -0.2 3
11 -8 -6 5.4 8.8
-11 8 5 15.8 6.2
-11 8 5 16.9 7.4
11 -8 -5 7.1 8.7
-11 8 4 32.7 8.8
-11 8 4 34.1 10.3
-11 8 4 30.9 6.5
11 -8 -4 30.4 13
-11 8 3 66.19 9.7
-11 8 3 79.09 16.2
11 -8 -3 55.99 14.4
-11 8 2 44.7 8.8
-11 8 2 58.09 13.9
11 -8 -2 55.59 14
-11 8 1 85.89 11.5
11 -8 -1 64.89 14.3
-11 8 0 5.9 4.1
11 -8 0 3.2 5.6
-11 8 -1 60.39 10.1
11 -8 1 80.69 15.2
-11 8 -2 47.6 9
11 -8 2 35.8 10.3
11 -8 2 52.59 9
-11 8 -3 64.09 10.6
11 -8 3 65.09 12.5
11 -8 3 81.19 10.8
-11 8 -4 18.4 6.7
11 -8 4 16.5 6.3
-11 8 -5 18.1 6.8
11 -8 5 18.7 6.5
-11 8 -6 6 5.5
11 -8 6 -7.9 4
11 -8 7 0.3 3.9
11 -8 7 5.2 7.2
11 -8 8 1.6 6.2
11 -8 9 10.1 8.5
-11 9 9 32.5 10.1
11 -9 -9 27.6 15.1
-11 9 8 15.2 7.7
11 -9 -8 6.4 11.2
-11 9 7 35.3 9.1
11 -9 -7 26.3 13.6
-11 9 6 27 7
11 -9 -6 9 9.9
-11 9 5 57.69 10.9
-11 9 5 62.29 12.8
11 -9 -5 67.29 16.9
-11 9 4 46.5 11.4
-11 9 4 55.59 8.7
11 -9 -4 20 11.4
-11 9 3 86.89 11.8
-11 9 3 49.2 13.7
11 -9 -3 73.19 17.7
-11 9 2 21.8 6.4
11 -9 -2 13.9 9.6
-11 9 1 37.9 8
11 -9 -1 20.5 9.2
-11 9 0 31 7.9
11 -9 0 36 11.4
-11 9 -1 44.9 9
11 -9 1 35 10.9
-11 9 -2 32.7 7.9
11 -9 2 32.3 11
-11 9 -3 45.3 9.4
11 -9 3 57.09 12.3
-11 9 -4 32.8 8
11 -9 4 53.09 9.7
-11 9 -5 52.59 10.2
11 -9 5 71.69 12.6
-11 9 -6 25.2 7.4
11 -9 6 18.4 7.9
11 -9 7 36.4 8.6
11 -9 7 57.19 12.6
11 -9 8 4.4 7.8
11 -9 9 28 10.8
-11 10 8 -4.7 5.8
11 -10 -8 5.1 10.6
-11 10 7 31.4 9.4
11 -10 -7 23.1 13.8
-11 10 6 5.5 4.6
11 -10 -6 -2.6 8.4
-11 10 5 53.79 12.9
11 -10 -5 53.59 16.9
-11 10 4 15.7 10.4
-11 10 4 24 6.6
11 -10 -4 15.3 10.7
-11 10 3 -4.4 3.4
11 -10 -3 -2.5 6.3
-11 10 2 38.7 8.6
11 -10 -2 8.1 10.2
-11 10 1 128.59 15.6
11 -10 -1 64.49 15.9
-11 10 0 17.3 6.3
11 -10 0 11.8 9
-11 10 -1 93.69 14.2
11 -10 1 112.89 20
-11 10 -2 27.2 7.9
11 -10 2 28.2 10.6
-11 10 -3 -0.9 4.4
11 -10 3 4.6 6.6
-11 10 -4 25.5 7.9
-11 10 -5 45 10
11 -10 5 32.6 9.4
-11 10 -6 3.2 5.6
11 -10 6 1.9 6.7
11 -10 7 28.5 10.3
11 -10 8 -1.6 7.5
11 -11 -7 45.4 18
11 -11 -6 6.9 10.7
-11 11 5 30.8 14.1
11 -11 -5 14.2 12.6
-11 11 4 31.3 7.8
-11 11 4 22 15.7
11 -11 -4 18.2 12.4
-11 11 3 5.7 5
11 -11 -3 2.1 8.5
-11 11 2 49.9 10.5
11 -11 -2 54.19 16.2
-11 11 1 21.3 6.9
11 -11 -1 10.9 9.3
-11 11 0 77.49 12.5
11 -11 0 61.39 16.4
-11 11 -1 25.7 7.5
11 -11 1 24.5 11.2
-11 11 -2 35.2 8.8
11 -11 2 42.8 13.4
-11 11 -3 6.7 5.7
-11 11 -4 18 6.9
-11 11 -5 16 7.4
-11 11 -6 17.7 8.1
11 -11 7 31.6 11.2
11 -12 -6 7.8 14.1
11 -12 -5 32.8 16.7
-11 12 4 9.3 6.4
11 -12 -4 4.2 10.4
-11 12 3 9.8 6.2
11 -12 -3 2.8 8.7
-11 12 2 12.1 6.1
11 -12 -2 -2.4 9.2
-11 12 1 29 8.8
11 -12 -1 27.4 12.1
-11 12 0 3.6 5
11 -12 0 -1.4 7.6
-11 12 -1 15.7 7.3
11 -12 1 19.6 11
-11 12 -2 4 5.3
11 -12 2 3.4 8.5
-11 12 -3 16.4 7.3
-11 12 -4 1.7 5.9
-11 12 -5 34.6 9.2
-11 12 -6 -1 5.9
11 -13 -5 25 17.4
-11 13 4 58.69 11.3
11 -13 -4 19.9 12.5
-11 13 3 48.9 11.1
11 -13 -3 47.3 16.9
-11 13 2 23 8.6
11 -13 -2 -1.5 8
-11 13 1 1.3 5.2
11 -13 -1 -7.6 7.4
-11 13 0 -4.8 4.5
11 -13 0 -0.5 8.4
-11 13 -1 -4.6 4.8
11 -13 1 -8.1 8.3
-11 13 -2 7.3 5.7
11 -13 2 30 13.5
-11 13 -3 32.8 9.6
-11 13 -4 38.2 10.7
-11 13 -5 -1.4 5.9
-11 14 3 17.8 8.3
11 -14 -3 32 15.9
-11 14 2 7 6.8
11 -14 -2 2.6 12
-11 14 1 25.3 9.3
11 -14 -1 21.2 13.2
-11 14 0 9.5 6.6
11 -14 0 8.7 9.4
-11 14 -1 23 9.3
11 -14 1 15.6 11.2
-11 14 -2 13.8 7.5
11 -14 2 7.1 15.4
-11 14 -3 9.9 7.6
-12 -14 2 15.8 6.7
-12 -14 2 6.4 8.1
12 14 -2 1.7 9.1
12 14 -2 9.6 7.9
-12 -14 1 2.7 4.9
-12 -14 1 4.5 8.4
12 14 -1 11.9 10.1
12 14 -1 20.4 8.9
-12 -14 0 1.1 5.6
12 14 0 -2.1 8.9
12 14 0 -5.3 5.8
-12 -14 -1 15.6 7.2
12 14 1 6.6 7.2
-12 -14 -2 6.5 7.1
12 14 2 3.9 6.3
-12 -13 5 -2 7
12 13 -5 14.2 9.2
-12 -13 4 -0.3 7.5
12 13 -4 5.2 7.7
12 13 -4 1.7 8.4
-12 -13 3 4 4.8
-12 -13 3 12.3 8.8
12 13 -3 10.7 9.6
12 13 -3 1.5 6.6
-12 -13 2 14.5 9
-12 -13 2 16.9 6.2
12 13 -2 13.2 7.8
12 13 -2 16.8 10.1
-12 -13 1 0.9 4.6
-12 -13 1 -2.2 7.9
12 13 -1 27 11.8
12 13 -1 3.2 6.5
-12 -13 0 9.9 6.2
12 13 0 34.8 13
12 13 0 11.3 6.8
-12 -13 -1 15.1 7.3
12 13 1 12.5 6.9
12 13 1 8.6 9.4
-12 -13 -2 25.5 8
12 13 2 34.3 9.6
12 13 2 21.2 10.6
-12 -13 -3 -6.4 4.7
12 13 3 1.3 5.7
-12 -13 -4 4.9 6.2
12 13 4 10.9 6.5
-12 -13 -5 13.1 7.8
12 13 5 4.7 6.3
-12 -12 6 0.6 7
-12 -12 6 26.9 12.2
-12 -12 5 17.6 10.4
12 12 -5 6.5 7.3
-12 -12 4 -0.2 7
12 12 -4 4.4 8.4
12 12 -4 7.4 7.1
-12 -12 3 1.7 4.1
-12 -12 3 9.1 8.7
12 12 -3 2.8 8.2
12 12 -3 0.9 6.1
-12 -12 2 8.2 4.9
-12 -12 2 -1.7 6
12 12 -2 -4.1 6.2
12 12 -2 9.6 6.5
-12 -12 1 1.3 4.4
-12 -12 1 3.4 8.6
12 12 -1 -6.6 6.7
12 12 -1 -3 5.1
-12 -12 0 25.6 7.1
12 12 0 52.19 11.4
12 12 0 28.4 11
-12 -12 -1 2 4.5
12 12 1 -0.6 4.7
12 12 1 4 7.4
-12 -12 -2 -1.3 4.7
12 12 2 -2.5 5.9
12 12 2 2.9 5.1
-12 -12 -3 15.3 7
12 12 3 6.9 6.2
12 12 3 0.2 7
-12 -12 -4 -2.9 4.6
12 12 4 -0.1 5
-12 -12 -5 14.8 7.3
12 12 5 5.1 6.1
-12 -12 -6 14 7.7
12 12 6 8.8 8.1
-12 -11 7 24 9.6
-12 -11 6 -8.6 6.6
-12 -11 6 0 6.6
-12 -11 5 36.6 12.7
12 11 -5 27.4 10.7
12 11 -5 32 10.2
-12 -11 4 2.6 6.4
12 11 -4 1.9 6.2
12 11 -4 12.3 8.1
-12 -11 3 86.99 16.8
-12 -11 3 89.79 11.7
12 11 -3 69.29 13
12 11 -3 96.29 17.1
-12 -11 2 36.1 11.2
-12 -11 2 55.49 9.7
12 11 -2 56.89 11.3
12 11 -2 66.29 15
-12 -11 1 283.67 24
-12 -11 1 292.97 29.3
12 11 -1 244.78 30.8
12 11 -1 287.97 25.6
-12 -11 0 220.18 19.5
12 11 0 185.08 21.7
12 11 0 177.38 25
-12 -11 -1 270.47 24.8
12 11 1 296.07 33.9
12 11 1 313.47 26.4
-12 -11 -2 34.7 8.3
12 11 2 55.69 11
12 11 2 46.1 13.3
-12 -11 -3 94.99 13.4
12 11 3 70.49 16
12 11 3 72.39 12.3
-12 -11 -4 2.5 5.5
12 11 4 1.4 4.6
12 11 4 12.6 6.9
12 11 4 7.6 7.6
-12 -11 -5 17.8 7.4
12 11 5 7.5 6.6
12 11 5 34.3 8.1
-12 -11 -6 -4.6 5.3
12 11 6 -5.8 5.6
12 11 7 39.3 11.4
-12 -10 8 74.49 15.6
-12 -10 7 17.8 8.1
-12 -10 6 19.4 7.7
-12 -10 6 30.8 13.2
-12 -10 5 1.5 7.4
12 10 -5 3 7.2
12 10 -5 12.9 7.2
-12 -10 4 18.1 8.8
-12 -10 4 37.3 6.6
12 10 -4 23.2 9.8
12 10 -4 40.8 9.5
-12 -10 3 21.3 5.7
-12 -10 3 12.4 7.8
12 10 -3 9.4 6.9
12 10 -3 10.3 7.9
-12 -10 2 31.7 7
-12 -10 2 22.5 9.8
12 10 -2 26.3 7.9
12 10 -2 43.7 11.6
-12 -10 1 47.5 8.5
-12 -10 1 31.4 10.5
12 10 -1 51.19 12.6
12 10 -1 57.79 10.9
-12 -10 0 164.68 17.1
12 10 0 136.19 17.2
12 10 0 156.68 21.8
-12 -10 -1 39.6 8.7
12 10 1 61.89 13.5
12 10 1 49.2 10.1
-12 -10 -2 19.1 7
12 10 2 44.2 12.2
12 10 2 31.2 7.6
-12 -10 -3 12.2 5.7
12 10 3 15.6 8.2
12 10 3 15.6 5.8
12 10 3 13.6 6.6
-12 -10 -4 43.6 9.4
12 10 4 29.9 8.9
12 10 4 32.5 8.2
12 10 4 38.7 12.2
-12 -10 -5 10.1 6.2
12 10 5 4.6 4.7
12 10 5 -0.2 5.7
12 10 5 -2.1 6.2
-12 -10 -6 31.6 9
12 10 6 28.3 10.4
12 10 6 45.7 11.5
12 10 7 19.2 8.7
12 10 8 39.2 10.9
-12 -9 9 14.7 10
-12 -9 8 17.9 8.7
-12 -9 7 37.1 10.3
-12 -9 6 11.5 9.4
-12 -9 5 81.69 17
12 9 -5 100.09 16.7
12 9 -5 144.29 16.9
-12 -9 4 5.1 3.3
-12 -9 4 0.1 5.9
12 9 -4 5.3 6
12 9 -4 -0.4 4.5
-12 -9 3 115.59 13.5
-12 -9 3 131.69 19.8
12 9 -3 143.59 19.6
12 9 -3 168.08 18.4
-12 -9 2 25.1 9.7
-12 -9 2 36.5 7.4
12 9 -2 31 9.8
12 9 -2 27.2 8.3
-12 -9 1 -1.2 3.3
-12 -9 1 5.9 6.4
12 9 -1 -0.2 3.9
12 9 -1 8.5 6.3
-12 -9 0 165.98 17.3
12 9 0 157.08 17.7
12 9 0 143.39 20.7
-12 -9 -1 2.8 4.3
12 9 1 2.5 3.8
12 9 1 -0.6 5.6
12 9 1 3.1 4.1
-12 -9 -2 33.7 7.8
12 9 2 36.5 7.9
12 9 2 33.7 10.3
12 9 2 20.3 6.6
-12 -9 -3 145.89 16.7
12 9 3 152.88 17.2
12 9 3 145.19 16.9
12 9 3 119.39 19.4
-12 -9 -4 -0.7 4.2
12 9 4 -1.5 3.5
12 9 4 -0.3 5.5
12 9 4 2.3 4.6
-12 -9 -5 97.99 13.8
12 9 5 91.89 16.3
12 9 5 95.69 15
12 9 5 106.89 13.5
12 9 5 139.59 20.3
-12 -9 -6 18.8 7.1
12 9 6 27.6 9.1
12 9 6 10.8 6.7
12 9 6 18.8 9.7
12 9 7 64.49 13.7
12 9 8 10.9 8.1
-12 -8 9 -8.7 5.4
-12 -8 8 44.2 12.3
-12 -8 7 11.2 6.8
12 8 -6 105.99 16.9
-12 -8 5 137.39 21.7
12 8 -5 136.59 19.7
12 8 -5 176.68 18.7
-12 -8 4 45.2 6.5
-12 -8 4 35.9 10.6
12 8 -4 12.5 7.6
12 8 -4 34.4 8.4
-12 -8 3 9.8 6.9
-12 -8 3 26.4 5.7
12 8 -3 18.6 7
12 8 -3 16.9 7.3
-12 -8 2 104.09 16.8
-12 -8 2 127.89 19.6
-12 -8 2 109.39 12.8
12 8 -2 115.09 17.8
12 8 -2 128.99 15.4
-12 -8 1 3.6 3.7
-12 -8 1 -2.6 4.4
12 8 -1 4.6 5
12 8 -1 7.4 4.9
-12 -8 0 12.4 5.2
12 8 0 14.9 5.3
12 8 0 15.3 7
12 8 0 8.1 4
-12 -8 -1 5.5 4.6
12 8 1 3.1 3.8
12 8 1 11.9 6.6
12 8 1 3.5 4.3
-12 -8 -2 124.69 15.1
12 8 2 147.49 15.4
12 8 2 130.09 19.2
12 8 2 114.09 14.5
-12 -8 -3 26.1 7.1
12 8 3 19.2 8.1
12 8 3 28.6 7
12 8 3 29.4 7.4
-12 -8 -4 30.9 7.5
12 8 4 36 10
12 8 4 27.2 8.6
12 8 4 39.3 7.6
12 8 4 45 9.3
-12 -8 -5 138.39 16
12 8 5 134.09 17.1
12 8 5 121.49 19.1
12 8 5 143.89 15.2
12 8 5 131.69 20.4
-12 -8 -6 85.19 12.5
12 8 6 117.19 15.9
12 8 6 89.69 17
12 8 6 79.09 13.3
12 8 7 22 7.9
12 8 7 35.8 10
12 8 8 26.1 9.2
12 8 9 4.5 7.9
-12 -7 10 12.5 9
-12 -7 9 5.7 6.6
-12 -7 8 -1.7 4.9
-12 -7 7 37.2 9.9
12 7 -6 18.4 7.6
-12 -7 5 13.4 8.2
12 7 -5 18.9 7.4
12 7 -5 23.9 7.3
-12 -7 4 -0.7 6
-12 -7 4 1.5 2.2
12 7 -4 -1.3 4
12 7 -4 8.4 4.9
-12 -7 3 4.3 5.5
-12 -7 3 12.3 7
-12 -7 3 11.9 3.7
12 7 -3 9.2 5
12 7 -3 11.4 6.3
-12 -7 2 92.49 10.5
-12 -7 2 66.99 12.2
-12 -7 2 61.59 12.4
12 7 -2 84.69 14.2
12 7 -2 83.49 11.2
-12 -7 1 15.1 5.1
-12 -7 1 13.5 7.6
-12 -7 1 21.2 7.8
12 7 -1 25.5 4.9
12 7 -1 16.5 7.2
12 7 -1 27.8 6.7
-12 -7 0 13.2 5
12 7 0 10.8 4
12 7 0 9 6.1
12 7 0 9.5 4.9
-12 -7 -1 19 5.7
12 7 1 21.6 7.5
12 7 1 25.4 5.8
12 7 1 29.9 7
-12 -7 -2 107.19 12.4
12 7 2 77.69 11.2
12 7 2 63.79 12.8
12 7 2 74.49 10.5
-12 -7 -3 3.4 4.7
12 7 3 10.2 4.6
12 7 3 7.5 4.6
12 7 3 10.2 6.2
12 7 3 9.5 5.8
-12 -7 -4 2.9 4.6
12 7 4 8.6 6.1
12 7 4 2.5 5.1
12 7 4 6.6 3.8
12 7 4 -1.4 3.4
-12 -7 -5 14.6 6.1
12 7 5 13.3 4.8
12 7 5 13.4 6.5
12 7 5 12.2 6.8
12 7 5 25.5 7.6
-12 -7 -6 4.4 5.7
12 7 6 17.1 5.7
12 7 6 14.4 7.3
12 7 6 21.5 7.6
12 7 6 18.3 6.7
12 7 6 9.1 7.1
12 7 7 15.5 8.6
12 7 7 6.1 6.2
12 7 7 13.8 6.5
12 7 7 20.4 6.5
12 7 8 0.6 6
12 7 9 11 8
12 7 10 14.7 9.7
-12 -6 10 29.6 10.5
-12 -6 9 8.8 7.2
-12 -6 8 35.2 10.6
-12 -6 7 8.9 6.4
12 6 -6 92.49 14.9
12 6 -5 92.39 14.9
12 6 -5 92.49 11.9
-12 -6 4 75.19 8
-12 -6 4 71.79 14.8
12 6 -4 68.89 13
12 6 -4 61.69 9.8
-12 -6 3 27.3 7.7
-12 -6 3 25.3 9.4
-12 -6 3 34.3 5.8
12 6 -3 55.89 8.5
12 6 -3 44.3 9.9
-12 -6 2 33.8 9.7
-12 -6 2 35.5 6.1
-12 -6 2 32.5 9.9
-12 -6 2 27 8.4
12 6 -2 25 4.7
12 6 -2 30.6 6.7
12 6 -2 43.1 9.8
-12 -6 1 99.59 16.9
-12 -6 1 85.29 13.6
-12 -6 1 80.39 10
12 6 -1 56.99 11.6
12 6 -1 77.19 10.5
12 6 -1 65.09 8.1
-12 -6 0 5.5 5.4
-12 -6 0 -0.5 3
-12 -6 0 4.7 7.6
12 6 0 5.5 5.2
12 6 0 0.5 3.2
12 6 0 3.6 2.9
-12 -6 -1 72.69 10
12 6 1 76.79 10.5
12 6 1 64.69 12.2
12 6 1 75.89 9.6
-12 -6 -2 30 7
12 6 2 32.2 6.5
12 6 2 19.4 5.4
12 6 2 26 8.1
12 6 2 28.4 9.3
-12 -6 -3 39.2 7.8
12 6 3 29.7 6.8
12 6 3 41.2 7.7
12 6 3 49.2 10.4
12 6 3 39.7 9.9
-12 -6 -4 75.19 11.1
12 6 4 66.39 13.2
12 6 4 82.09 14.2
12 6 4 85.79 12.4
12 6 4 90.49 11
-12 -6 -5 103.99 13
12 6 5 98.49 14
12 6 5 92.89 17
12 6 5 79.79 13.5
12 6 5 120.19 12.3
12 6 5 114.99 17.4
-12 -6 -6 78.59 11.6
12 6 6 93.69 10.4
12 6 6 96.39 16.1
12 6 6 71.19 12.5
12 6 6 85.49 13.7
12 6 6 85.99 13.8
12 6 7 12.8 5.5
12 6 7 13.1 5.5
12 6 7 15.2 8.1
12 6 7 17.2 7.6
12 6 8 35.4 10.6
12 6 9 6.7 6.8
12 6 10 17.2 9.1
-12 -5 10 0.1 6.5
-12 -5 10 1.2 7
-12 -5 9 42 12.2
-12 -5 9 42.2 10.9
-12 -5 8 8.1 6
-12 -5 8 2.3 6
-12 -5 7 26.3 8
-12 -5 7 11.6 6.3
12 5 -7 37.6 11.6
-12 -5 6 26.7 7.2
-12 -5 6 33.6 8.5
12 5 -6 21.6 7.7
-12 -5 5 8.7 5.3
12 5 -5 11.7 5.1
12 5 -5 9.6 5.9
-12 -5 4 105.59 13.2
-12 -5 4 80.59 8.6
-12 -5 4 81.79 15.1
12 5 -4 84.39 11.2
12 5 -4 101.09 14.9
-12 -5 3 18.8 4.2
-12 -5 3 16 6.3
-12 -5 3 18 5.7
-12 -5 3 10.2 6.7
12 5 -3 11.9 5.7
12 5 -3 4 3.9
-12 -5 2 58.39 11.9
-12 -5 2 67.29 9.6
-12 -5 2 61.69 8.1
-12 -5 2 52.69 11.4
-12 -5 2 39 8.9
12 5 -2 61.99 9.1
12 5 -2 68.39 11.9
-12 -5 1 156.58 18.8
-12 -5 1 172.68 14.5
-12 -5 1 168.58 19.7
-12 -5 1 162.88 14.8
-12 -5 1 199.88 20
12 5 -1 145.79 14.5
12 5 -1 147.79 18.8
12 5 -1 161.48 13.5
-12 -5 0 8.3 5.9
-12 -5 0 -0.6 2.8
-12 -5 0 -2.3 5.6
-12 -5 0 9 8.8
12 5 0 0 2.9
12 5 0 -2 2
12 5 0 -3.1 3.7
12 5 0 -0.1 3.8
-12 -5 -1 165.78 15.5
-12 -5 -1 183.18 21.3
12 5 1 188.28 15.9
12 5 1 154.08 14.5
12 5 1 279.17 30.7
12 5 1 161.08 20.2
-12 -5 -2 51.79 8.9
12 5 2 68.49 12.4
12 5 2 63.59 8.9
12 5 2 48.1 7.7
12 5 2 44.6 10
-12 -5 -3 12.6 5.3
12 5 3 5.9 5.6
12 5 3 9.4 4.1
12 5 3 12.8 4.9
12 5 3 10.2 5.5
-12 -5 -4 80.19 11.7
12 5 4 96.99 11.5
12 5 4 100.39 15.2
12 5 4 99.69 15.7
12 5 4 100.59 13.1
-12 -5 -5 8.1 5.2
12 5 5 12.5 5.5
12 5 5 14.7 5.8
12 5 5 15 4.3
12 5 5 16.6 7.5
12 5 5 14 7
-12 -5 -6 33 7.6
12 5 6 14.9 4.2
12 5 6 36.6 9.5
12 5 6 17.9 6.9
12 5 6 19.9 6.5
12 5 6 30.1 7.7
12 5 7 15.2 7.2
12 5 7 33 6.9
12 5 7 19.5 7.6
12 5 7 22.3 6.2
12 5 8 3 5.6
12 5 9 40.7 11.3
12 5 10 3 5.7
-12 -4 11 7.8 7.2
-12 -4 11 24.9 9.6
-12 -4 10 -5.3 5.6
-12 -4 10 -4.8 5.1
-12 -4 9 13 6.7
-12 -4 9 19.1 8.2
-12 -4 8 119.49 17.1
-12 -4 8 127.99 17.9
-12 -4 7 54.19 11.2
-12 -4 7 46.5 10.1
12 4 -7 60.59 12.3
-12 -4 6 203.08 18.8
-12 -4 6 211.08 19.8
12 4 -6 188.78 22.3
-12 -4 5 101.99 13.7
12 4 -5 88.69 14.9
12 4 -5 97.99 11.5
-12 -4 4 146.89 14.8
-12 -4 4 148.39 16.9
-12 -4 4 139.79 11.3
12 4 -4 156.78 13.9
12 4 -4 162.78 19.4
-12 -4 3 31.6 9.2
-12 -4 3 26.1 4.7
-12 -4 3 15.7 5.4
-12 -4 3 22.5 6.2
12 4 -3 29.9 8.3
12 4 -3 32.4 6.3
-12 -4 2 51.59 7.3
-12 -4 2 64.39 9.2
-12 -4 2 64.09 10.7
-12 -4 2 44 10.3
12 4 -2 46 7.7
12 4 -2 41.2 9.5
12 4 -2 43.4 11.2
12 4 -2 77.39 13.8
-12 -4 1 12.6 4.4
-12 -4 1 17.1 8.1
-12 -4 1 20.1 4.6
-12 -4 1 8.7 5
-12 -4 1 13.7 6.3
12 4 -1 16.4 6.4
12 4 -1 15.9 6.6
12 4 -1 8.9 7.6
12 4 -1 14.4 4.5
-12 -4 0 23.7 7.2
-12 -4 0 8.9 3.7
-12 -4 0 22.8 7.9
-12 -4 0 25.6 5.5
-12 -4 0 19 7
12 4 0 19.7 4.4
12 4 0 35.3 10.6
12 4 0 17.8 6.2
12 4 0 20.5 6.7
12 4 0 21.6 5.5
-12 -4 -1 8.1 5.4
-12 -4 -1 14.7 6.8
-12 -4 -1 10 5.2
-12 -4 -1 5.8 3.6
12 4 1 10 5.8
12 4 1 13.8 3.8
12 4 1 21.4 6.5
12 4 1 -2.2 3.5
12 4 1 15.2 4.4
-12 -4 -2 63.59 9
-12 -4 -2 48.4 13.7
-12 -4 -2 43.1 10.3
12 4 2 54.19 8
12 4 2 45.7 11
12 4 2 58.19 8.2
12 4 2 53.49 11.9
12 4 2 50.19 9.9
-12 -4 -3 33.6 6.8
12 4 3 27.9 6.2
12 4 3 25.7 5.6
12 4 3 24.6 7.8
12 4 3 21.1 7.9
12 4 3 14.1 5.8
-12 -4 -4 148.19 15.5
12 4 4 153.08 17.7
12 4 4 168.88 19.7
12 4 4 151.78 13.5
12 4 4 146.29 16.8
12 4 4 133.49 15.9
-12 -4 -5 106.39 12.9
12 4 5 84.29 12.4
12 4 5 90.89 13.6
12 4 5 97.99 10.6
12 4 5 98.89 14.7
12 4 5 117.09 15.2
-12 -4 -6 231.18 19.4
12 4 6 198.78 20.6
12 4 6 199.38 19.6
12 4 6 228.58 20.8
12 4 6 210.68 16.7
12 4 6 214.78 19.7
12 4 7 59.99 12.1
12 4 7 70.99 12.1
12 4 7 55.29 8.7
12 4 7 35.8 6.7
12 4 8 105.79 16.3
12 4 9 16.1 7.5
12 4 10 8.5 7.4
12 4 11 29.5 11.2
-12 -3 11 12.1 7.1
-12 -3 11 20 9
-12 -3 10 32.8 9.9
-12 -3 10 27.7 9.1
-12 -3 9 35.7 10
-12 -3 9 17.4 7.6
-12 -3 8 10.6 6.9
-12 -3 8 21.6 7.9
-12 -3 7 15.9 6.6
-12 -3 7 11.7 5.4
12 3 -7 11 6.6
-12 -3 6 11.6 5.4
-12 -3 6 17.2 7
12 3 -6 10.8 6.9
-12 -3 5 44.5 9
12 3 -5 40.3 9.6
-12 -3 4 7.6 3.9
-12 -3 4 3.8 1.9
-12 -3 4 7.3 4.5
12 3 -4 3.8 5.1
-12 -3 3 11 4.9
-12 -3 3 5 2.7
-12 -3 3 14 5.3
12 3 -3 14.7 7.1
12 3 -3 9.5 5.8
-12 -3 2 346.87 24.2
-12 -3 2 265.27 21.9
-12 -3 2 297.07 27.2
-12 -3 2 356.36 27.7
12 3 -2 275.37 25.9
12 3 -2 324.27 27.7
12 3 -2 289.77 28.6
12 3 -2 307.07 23.2
-12 -3 1 145.39 13.6
-12 -3 1 135.69 17.4
-12 -3 1 197.48 14.9
-12 -3 1 162.98 18.3
12 3 -1 183.68 14.4
12 3 -1 184.88 18.6
12 3 -1 117.99 18.1
12 3 -1 146.69 18.3
-12 -3 0 90.79 10.3
-12 -3 0 116.39 11.8
-12 -3 0 161.88 14.6
-12 -3 0 106.39 15.9
12 3 0 70.39 12.8
12 3 0 109.49 14.7
12 3 0 117.69 12
12 3 0 82.69 12.2
-12 -3 -1 234.78 25.5
-12 -3 -1 121.09 11.8
-12 -3 -1 197.38 16.4
-12 -3 -1 140.19 17.6
-12 -3 -1 125.09 13.7
12 3 1 125.89 16.4
12 3 1 145.29 13.1
12 3 1 150.58 12.9
12 3 1 129.29 16.1
-12 -3 -2 245.88 25
-12 -3 -2 232.28 23.7
-12 -3 -2 223.98 17.6
-12 -3 -2 245.48 19.7
12 3 2 234.68 21.7
12 3 2 247.48 19.5
12 3 2 244.48 23
12 3 2 268.97 19.7
12 3 2 274.17 25.1
-12 -3 -3 4.5 4.7
-12 -3 -3 12.4 4.9
-12 -3 -3 -1 4.8
12 3 3 8.4 4.9
12 3 3 12.4 6.4
12 3 3 12.4 5.3
12 3 3 14.7 4.2
12 3 3 9.8 4.1
-12 -3 -4 6.4 4.2
12 3 4 12.1 6
12 3 4 6.5 5
12 3 4 5.3 4.1
12 3 4 7.9 3.6
12 3 4 3.8 4.3
-12 -3 -5 21.2 6.1
12 3 5 29.6 5.3
12 3 5 31.2 7.9
12 3 5 40.1 9.5
12 3 5 27.7 7.1
12 3 5 29 7.6
-12 -3 -6 20.3 6.1
12 3 6 13.7 6
12 3 6 12.2 5.9
12 3 6 14 5
12 3 6 11.3 5.2
12 3 6 13.5 3.7
12 3 7 4.1 5.4
12 3 8 18.4 7.2
12 3 9 18.8 8.3
12 3 10 20.1 9
12 3 11 3.2 7.3
-12 -2 11 -4.1 5.1
-12 -2 10 44.9 11.6
-12 -2 10 43.9 10.8
-12 -2 9 14.6 7.2
-12 -2 9 13.1 6.6
-12 -2 8 42.8 9.9
-12 -2 8 46.4 10.1
-12 -2 7 14.7 6.2
-12 -2 7 9.3 6.2
12 2 -7 9.9 6.8
-12 -2 6 106.09 14.8
-12 -2 6 124.19 14.6
12 2 -6 120.19 17.3
-12 -2 5 25.3 7
12 2 -5 16 6.6
-12 -2 4 4.5 4
-12 -2 4 1.3 1.4
-12 -2 4 1.6 2.7
12 2 -4 0 4.2
-12 -2 3 14.7 3.6
-12 -2 3 21.1 6.4
-12 -2 3 21 5.9
12 2 -3 19.7 7.1
12 2 -3 14.4 6.3
-12 -2 2 7.9 5.4
-12 -2 2 5.9 3
-12 -2 2 7.6 3.9
12 2 -2 8.4 6.4
12 2 -2 1.4 3.7
12 2 -2 5.2 6
-12 -2 1 304.77 22.8
-12 -2 1 242.48 18.1
-12 -2 1 174.18 16.7
-12 -2 1 181.18 20.8
12 2 -1 255.67 21.5
12 2 -1 234.58 23.1
-12 -2 0 5.3 3.5
-12 -2 0 1.1 4.5
-12 -2 0 7.9 3.7
-12 -2 0 -0.9 5
12 2 0 27.7 9.2
12 2 0 3 4.1
12 2 0 7.7 4.6
12 2 0 4.4 3
-12 -2 -1 167.38 13.8
-12 -2 -1 161.88 16.2
-12 -2 -1 185.58 15.3
-12 -2 -1 185.98 21
12 2 1 173.68 17.2
12 2 1 169.38 18.1
12 2 1 169.98 14.6
-12 -2 -2 6.2 5.2
-12 -2 -2 2.6 4.2
-12 -2 -2 5.2 2.6
-12 -2 -2 -0.7 2.7
-12 -2 -2 3.7 5.2
12 2 2 2.4 3.4
12 2 2 3.9 3
12 2 2 0.1 2.3
12 2 2 6.5 4.1
12 2 2 0.9 5
-12 -2 -3 16.5 4.9
-12 -2 -3 22.8 3.6
-12 -2 -3 5 4
-12 -2 -3 15.6 7.3
12 2 3 11.8 5.5
12 2 3 25.2 5
12 2 3 22.1 7.4
12 2 3 10.2 5.3
12 2 3 20.9 5.1
-12 -2 -4 0.3 3.3
12 2 4 -0.4 2.3
12 2 4 5.1 4.4
12 2 4 -0.3 2.1
12 2 4 2.3 3.7
12 2 4 -3.3 3.2
-12 -2 -5 19.8 5.6
12 2 5 17 6.4
12 2 5 25.8 6.1
12 2 5 24.3 4.7
12 2 5 19.2 6.4
12 2 5 19.2 6
-12 -2 -6 93.89 12.2
12 2 6 105.39 11.6
12 2 6 113.89 13
12 2 6 112.49 12.2
12 2 6 138.19 16
12 2 6 112.49 14.8
12 2 7 5.7 5.1
12 2 8 29.2 8
12 2 9 18.9 7.4
12 2 10 69.19 14.4
12 2 11 -3 6.2
-12 -1 11 37.2 10.6
-12 -1 10 8.7 7.2
-12 -1 9 114.49 16.2
-12 -1 9 102.19 15.5
-12 -1 8 51.99 10
-12 -1 8 43.9 10.2
12 1 -8 54.99 12.7
-12 -1 7 198.88 22
-12 -1 7 184.88 18.1
12 1 -7 227.98 26
-12 -1 6 36.4 8.4
-12 -1 6 25.9 6.3
12 1 -6 39.3 10.6
-12 -1 5 355.26 27.8
12 1 -5 322.07 29.8
-12 -1 4 51.99 5.2
-12 -1 4 51.89 8.1
-12 -1 4 39.9 8.5
12 1 -4 53.29 11.2
-12 -1 3 155.88 16.8
-12 -1 3 230.48 15.4
-12 -1 3 214.08 19.1
12 1 -3 175.68 22.2
-12 -1 2 34.9 5.7
-12 -1 2 43.6 7.2
-12 -1 2 44.6 9.8
12 1 -2 43.9 9.8
12 1 -2 37.5 8.8
12 1 -2 56.89 11.7
-12 -1 1 816.02 63.49
-12 -1 1 910.01 60.09
12 1 -1 980.7 65.09
12 1 -1 918.41 63.69
-12 -1 0 153.08 13.4
-12 -1 0 174.88 14
-12 -1 0 138.59 16.8
-12 -1 0 143.39 18
12 1 0 169.38 19.1
12 1 0 125.99 16.9
12 1 0 159.78 17.3
-12 -1 -1 608.24 44.2
-12 -1 -1 664.53 42.2
-12 -1 -1 662.23 48.7
-12 -1 -1 607.64 42.8
12 1 1 670.63 46.2
12 1 1 569.94 46.1
-12 -1 -2 32 9.9
-12 -1 -2 35.1 6.7
-12 -1 -2 25 4.5
-12 -1 -2 35.6 6.5
12 1 2 30.7 7.7
12 1 2 29.9 5.6
12 1 2 30.3 8.7
12 1 2 34.4 6
12 1 2 20.9 7.3
-12 -1 -3 155.38 14.3
-12 -1 -3 154.28 14.3
-12 -1 -3 146.99 20.5
-12 -1 -3 144.89 11.9
12 1 3 165.58 14.4
12 1 3 172.58 17.9
12 1 3 193.98 18.3
12 1 3 166.98 16
12 1 3 156.48 13.7
-12 -1 -4 32.8 12.4
-12 -1 -4 40.9 7.2
12 1 4 34.9 7.9
12 1 4 46.6 7.6
12 1 4 52.49 10.3
12 1 4 38 6.3
12 1 4 59.39 11.1
-12 -1 -5 350.16 26.3
12 1 5 366.96 27.3
12 1 5 378.56 29.1
12 1 5 349.87 24.5
12 1 5 314.17 27.5
12 1 5 307.27 26.7
-12 -1 -6 24.1 6.6
12 1 6 29.7 7.1
12 1 6 33.7 7.5
12 1 6 37.5 7.7
12 1 6 30.3 6.8
12 1 7 197.08 21.4
12 1 8 51.99 10.8
12 1 9 111.59 16.8
12 1 10 26.5 9.2
12 1 11 52.29 12.8
-12 0 11 10.8 7.9
-12 0 10 10.9 6.3
-12 0 9 21.4 8
-12 0 8 132.89 17.8
-12 0 8 126.99 15.7
12 0 -8 139.89 19.8
-12 0 7 1.4 3.9
-12 0 7 2.1 4.9
12 0 -7 5.8 6.6
-12 0 6 59.49 10.9
-12 0 6 70.99 9.6
12 0 -6 47.4 11.9
-12 0 5 225.18 20.7
-12 0 5 240.08 18.5
12 0 -5 235.18 23.3
-12 0 4 337.97 22
-12 0 4 347.57 25.4
-12 0 4 295.37 25.8
12 0 -4 334.07 29.4
-12 0 3 147.49 12.2
-12 0 3 163.98 16.7
-12 0 3 162.98 16.1
12 0 -3 134.69 18.5
-12 0 2 589.74 39.1
-12 0 2 508.35 42.7
-12 0 2 652.63 41
12 0 -2 587.74 44.3
-12 0 1 192.78 16
-12 0 1 208.08 15.9
-12 0 1 198.08 20.2
12 0 -1 209.18 19.7
12 0 -1 156.18 19.1
-12 0 0 80.19 13.8
-12 0 0 65.99 8.9
-12 0 0 58.19 8.7
12 0 0 140.39 22.7
12 0 0 56.99 10.7
12 0 0 72.59 12
-12 0 -1 120.79 17
-12 0 -1 133.69 15
-12 0 -1 122.59 12.6
12 0 1 105.89 14.9
-12 0 -2 382.56 25.6
-12 0 -2 387.76 27.1
-12 0 -2 350.36 27.3
12 0 2 350.06 30.3
12 0 2 379.86 30.7
12 0 2 339.87 28.6
-12 0 -3 132.89 13.1
-12 0 -3 158.48 11.5
-12 0 -3 150.48 13.3
-12 0 -3 176.68 22
12 0 3 136.79 12.9
12 0 3 145.89 16.7
12 0 3 136.79 15.8
12 0 3 132.09 12.3
12 0 3 135.49 15.7
-12 0 -4 288.17 28.2
-12 0 -4 322.47 23.6
-12 0 -4 291.47 22.4
12 0 4 291.87 25.9
12 0 4 314.27 23.8
12 0 4 320.07 22.5
12 0 4 295.27 24.5
12 0 4 310.27 26.5
-12 0 -5 250.77 19.5
12 0 5 216.48 20.9
12 0 5 234.48 20
12 0 5 245.78 20.5
12 0 5 238.68 21.2
12 0 5 226.68 17.5
-12 0 -6 43.1 8.2
12 0 6 61.09 10
12 0 6 51.39 8.7
12 0 6 50.49 9
12 0 7 4.2 4.5
12 0 8 82.59 13.2
12 0 9 53.99 11.3
12 0 10 0.7 5.7
12 0 11 26.5 9.8
-12 1 11 38.5 11.3
-12 1 11 33.7 9.8
-12 1 10 -2 5.2
-12 1 10 4.4 5.8
-12 1 9 118.19 17.3
-12 1 8 40.1 9.9
12 -1 -8 37.4 10.6
-12 1 7 224.38 23.1
12 -1 -7 189.28 24.7
-12 1 6 32 6.3
-12 1 6 30.7 7.6
12 -1 -6 22.9 8.5
-12 1 5 316.47 26.4
-12 1 5 343.67 24.1
12 -1 -5 310.47 29
-12 1 4 45.5 7.8
-12 1 4 50.49 5.1
-12 1 4 34.7 7.7
12 -1 -4 53.49 11.3
-12 1 3 190.98 14
-12 1 3 172.28 17.7
12 -1 -3 141.99 19.7
-12 1 2 31 5.7
-12 1 2 42.2 9.9
12 -1 -2 47.2 10.1
12 -1 -2 28.5 8.2
-12 1 1 949.71 58.69
-12 1 1 844.02 62.39
12 -1 -1 922.81 63.29
12 -1 -1 813.52 62.39
-12 1 0 182.08 20
-12 1 0 205.08 16.3
12 -1 0 225.18 22.2
12 -1 0 159.88 20.4
-12 1 -1 642.64 48.7
-12 1 -1 625.84 44.1
12 -1 1 694.63 48.1
-12 1 -2 25.4 5.6
-12 1 -2 39.4 9.9
12 -1 2 36.3 9.8
12 -1 2 34.3 9
12 -1 2 21.4 6.8
-12 1 -3 147.39 18.4
-12 1 -3 160.28 14.1
-12 1 -3 157.88 13.9
12 -1 3 175.08 16.1
12 -1 3 172.38 14.5
12 -1 3 167.48 17.5
12 -1 3 150.78 17.1
-12 1 -4 45.2 9.6
-12 1 -4 32.8 11.3
-12 1 -4 45.8 7.5
12 -1 4 50.19 8.7
12 -1 4 45.8 9
12 -1 4 32.8 7.8
12 -1 4 52.79 8.1
12 -1 4 55.39 7
-12 1 -5 337.77 24.9
12 -1 5 300.07 26.3
12 -1 5 327.57 25.1
12 -1 5 342.07 25.6
12 -1 5 302.97 26.3
12 -1 5 321.57 22.8
-12 1 -6 27.3 6.4
12 -1 6 24.9 6.4
12 -1 6 34.2 7.2
12 -1 6 27.1 7
12 -1 7 185.38 20.2
12 -1 8 52.69 10.3
12 -1 9 145.29 18.9
12 -1 10 7.6 5.9
12 -1 11 48.1 11.9
-12 2 11 1.9 6.5
-12 2 11 -7.4 4.9
-12 2 10 41 9.9
-12 2 10 45 11.4
-12 2 9 2.9 5.6
-12 2 9 9.5 5.8
12 -2 -9 6.5 7.5
-12 2 8 42 10.4
12 -2 -8 53.99 13
-12 2 7 22.7 7.3
12 -2 -7 14.7 7.8
-12 2 6 116.19 15.1
12 -2 -6 110.49 17.7
-12 2 5 32.7 8.4
12 -2 -5 34.2 10.3
-12 2 4 0.8 2
-12 2 4 1.8 3.4
-12 2 4 0.7 1.8
12 -2 -4 2.4 5.5
-12 2 3 19.3 4
-12 2 3 7.4 5
12 -2 -3 21.4 7.7
-12 2 2 4.7 3.2
-12 2 2 8.2 6.4
12 -2 -2 8.4 6.3
12 -2 -2 8 6
-12 2 1 246.78 20.3
-12 2 1 287.47 25.6
12 -2 -1 272.47 24.6
-12 2 0 9.3 3.9
-12 2 0 15.9 7.1
12 -2 0 4.9 4.4
12 -2 0 5.7 4.6
-12 2 -1 197.08 15.9
-12 2 -1 197.68 20.4
12 -2 1 151.48 19.2
-12 2 -2 3.9 3.1
-12 2 -2 1 9.6
12 -2 2 8.4 4.8
12 -2 2 2 4.2
-12 2 -3 29.2 9.1
-12 2 -3 18.9 4.9
12 -2 3 16.3 6.4
12 -2 3 16.4 5.9
12 -2 3 15.7 5.9
-12 2 -4 3.6 3.1
12 -2 4 1 3.8
12 -2 4 1.6 2.8
12 -2 4 -0.3 2.6
12 -2 4 4.3 3.8
12 -2 4 -0.4 3.3
-12 2 -5 19.8 5.5
12 -2 5 13.4 5.6
12 -2 5 18.6 5.9
12 -2 5 17.4 6.3
12 -2 5 17.8 4.9
12 -2 5 16 3.9
-12 2 -6 122.69 13.8
12 -2 6 116.19 14.1
12 -2 6 111.79 12.7
12 -2 6 120.99 13.2
12 -2 7 16.6 5.9
12 -2 8 50.59 10.3
12 -2 10 58.99 12.3
12 -2 11 -2.6 6.1
-12 3 11 24.1 10.1
-12 3 11 13.5 8
-12 3 10 31.9 10.1
-12 3 10 36.2 9.4
-12 3 9 29.1 8.4
-12 3 9 33.1 9.6
12 -3 -9 31.6 10.9
-12 3 8 24.3 7.8
-12 3 8 23.7 7.7
12 -3 -8 10.8 9
-12 3 7 22.3 7.8
12 -3 -7 26.2 10.5
12 -3 -6 10.7 7.7
12 -3 -5 29.7 9.4
-12 3 4 5.3 4.6
-12 3 4 2.6 2.3
12 -3 -4 3.3 5.7
-12 3 3 18.4 6.8
-12 3 3 2.8 3
12 -3 -3 4 5.8
-12 3 2 290.57 22.6
-12 3 2 290.07 26.6
12 -3 -2 351.16 28.9
12 -3 -2 287.27 27.7
-12 3 1 168.88 18.6
-12 3 1 125.09 13.2
12 -3 -1 137.29 18.9
12 -3 -1 213.38 20.2
-12 3 0 120.39 12.2
-12 3 0 130.09 15.4
12 -3 0 82.99 14.1
12 -3 0 94.89 14.7
-12 3 -1 145.39 13.3
-12 3 -1 149.79 17.7
12 -3 1 138.69 17.2
-12 3 -2 253.77 24.6
-12 3 -2 257.97 20.7
12 -3 2 252.67 23.8
12 -3 2 293.57 23.9
-12 3 -3 17.4 4.8
-12 3 -3 3.5 4.5
12 -3 3 7.3 4.9
12 -3 3 4.7 4.3
-12 3 -4 1.8 3
12 -3 4 0.7 3.5
12 -3 4 7.9 4.5
12 -3 4 6 5.2
12 -3 4 5.6 3.3
-12 3 -5 27.4 6.3
12 -3 5 30.8 5.2
12 -3 5 36 6.7
12 -3 5 25.6 6.8
12 -3 5 22.6 7.1
-12 3 -6 15.5 5.3
12 -3 6 19.9 5.6
12 -3 6 13.3 4.7
12 -3 6 8.4 4.5
12 -3 6 10.8 4.7
12 -3 7 9.4 6.5
12 -3 7 13.4 5.9
12 -3 8 20.4 8.8
12 -3 8 17.5 6.7
12 -3 9 33.5 9.5
12 -3 9 25.6 9.2
12 -3 10 62.29 13
12 -3 11 8.4 8.4
-12 4 11 17.6 8
-12 4 11 7.7 8.5
-12 4 10 8.2 7.1
-12 4 10 -4.2 5.2
-12 4 9 22.2 8.3
-12 4 9 12.8 7.2
12 -4 -9 17.6 10.1
-12 4 8 106.19 15
-12 4 8 141.89 18.2
12 -4 -8 130.09 21
12 -4 -7 38.1 12.3
12 -4 -6 220.08 28
-12 4 5 105.89 11.2
-12 4 5 90.79 9.7
12 -4 -5 100.39 17.7
-12 4 4 156.98 12.6
-12 4 4 159.18 16.6
12 -4 -4 142.39 21.1
-12 4 3 33.5 8.7
-12 4 3 21.4 5
12 -4 -3 28.5 10.1
-12 4 2 50.99 11.2
-12 4 2 55.59 8
12 -4 -2 72.19 14
12 -4 -2 55.69 10.8
-12 4 1 8.4 3.9
-12 4 1 10.9 6.2
12 -4 -1 4.1 4.3
12 -4 -1 17.1 7.1
-12 4 0 19.3 5.1
-12 4 0 19 7.4
12 -4 0 8 3.6
12 -4 0 36.2 8.8
-12 4 -1 11.2 3.9
-12 4 -1 0.1 5.2
12 -4 1 9 4.7
12 -4 1 10.1 5.5
-12 4 -2 63.79 13.5
-12 4 -2 52.99 8.1
12 -4 2 47.4 9.8
12 -4 2 53.09 10.6
-12 4 -3 21.1 5.2
12 -4 3 19.2 6.6
12 -4 3 27.5 7.5
-12 4 -4 160.38 16
12 -4 4 157.38 17.3
12 -4 4 134.29 16.4
12 -4 4 151.38 14.4
12 -4 4 146.09 13.4
-12 4 -5 108.89 12.8
12 -4 5 107.59 12.3
12 -4 5 88.69 13.7
12 -4 5 94.19 13
12 -4 5 94.99 14.7
-12 4 -6 207.68 18.6
12 -4 6 228.28 18.8
12 -4 6 197.38 17.5
12 -4 6 220.58 19.9
12 -4 6 199.38 19.4
12 -4 6 201.38 21.8
12 -4 7 49 7.8
12 -4 7 46.1 10.2
12 -4 7 25.5 7.1
12 -4 7 46.1 7.6
12 -4 8 129.59 16.4
12 -4 8 130.39 18
12 -4 9 24 7.8
12 -4 9 3.6 6.9
12 -4 10 8.3 8.9
12 -4 10 15.8 10.2
12 -4 11 24.9 11.5
-12 5 10 1.4 6
-12 5 10 1.7 6.2
-12 5 9 48.4 12.2
-12 5 9 30.1 9.6
12 -5 -9 57.79 15.7
-12 5 8 14.4 7.2
12 -5 -8 15.3 10.1
-12 5 7 28.5 8.2
12 -5 -7 25.1 10.9
12 -5 -6 16.1 9.7
-12 5 5 18.3 4.9
-12 5 5 11.4 5.6
12 -5 -5 18.6 9.1
-12 5 4 101.39 10.4
-12 5 4 102.79 14.5
12 -5 -4 81.49 16.2
-12 5 3 19.6 4.9
-12 5 3 9.7 6.5
12 -5 -3 13.4 7.6
-12 5 2 65.89 9.2
-12 5 2 60.49 12.7
12 -5 -2 71.59 14.2
-12 5 1 188.18 20.4
-12 5 1 169.78 15.5
12 -5 -1 166.48 22.2
-12 5 0 -2.6 2.3
-12 5 0 -1.2 5.2
12 -5 0 0.6 5
-12 5 -1 154.88 14.7
12 -5 1 161.48 20.1
-12 5 -2 60.39 9
12 -5 2 61.39 11.6
-12 5 -3 13.8 5.2
12 -5 3 16.5 6.5
12 -5 3 11 4.8
-12 5 -4 86.19 11.8
12 -5 4 75.09 13.2
12 -5 4 89.89 11.8
12 -5 4 114.49 14.2
-12 5 -5 9.4 4.9
12 -5 5 17.2 6.9
12 -5 5 18.8 6.8
12 -5 5 31.7 7.7
12 -5 5 16.7 4.8
-12 5 -6 26.3 6.9
12 -5 6 32.3 6.6
12 -5 6 17.5 6.7
12 -5 6 20.5 6.9
12 -5 6 25.1 7.3
12 -5 6 19.1 7.5
12 -5 7 20.6 5.7
12 -5 7 19.5 5.6
12 -5 7 24.2 8.5
12 -5 7 16.4 5.7
12 -5 8 24.2 7.3
12 -5 8 14.7 7.7
12 -5 9 30.4 11.1
12 -5 10 2.2 7.2
-12 6 10 16.4 9.8
-12 6 10 28.3 9.7
12 -6 -10 27.2 12.9
-12 6 9 14.9 7.3
12 -6 -9 0 9.2
-12 6 8 50.39 11
12 -6 -8 68.19 16.8
-12 6 7 2.5 5.9
12 -6 -7 5.8 7.6
12 -6 -6 45.2 13
-12 6 5 96.79 13.4
-12 6 5 100.09 11.6
12 -6 -5 110.29 19.6
-12 6 4 92.89 15.3
-12 6 4 86.09 9.9
12 -6 -4 100.39 18
-12 6 3 48.9 11.5
-12 6 3 36.7 7.1
12 -6 -3 44.6 11.5
-12 6 2 31.9 6.7
-12 6 2 28.2 9.5
12 -6 -2 30.1 9.8
-12 6 1 95.79 16.8
-12 6 1 74.29 10.4
12 -6 -1 78.29 14.8
-12 6 0 1.5 4.1
-12 6 0 1.4 3
12 -6 0 7.2 5.9
-12 6 -1 79.39 11.1
12 -6 1 77.79 13.6
-12 6 -2 19.8 5.5
12 -6 2 23.1 5.5
12 -6 2 37.5 9.7
-12 6 -3 28.9 6.6
12 -6 3 35.8 8.8
12 -6 3 36.1 7.1
-12 6 -4 73.59 10.6
12 -6 4 66.89 10.3
12 -6 4 75.29 12.1
-12 6 -5 100.09 13
12 -6 5 80.69 13.8
12 -6 5 91.69 12.6
12 -6 5 77.39 10.1
-12 6 -6 66.49 11.1
12 -6 6 79.29 13.1
12 -6 6 91.79 11.4
12 -6 6 69.79 12.8
12 -6 6 75.19 12
12 -6 7 14.8 5.4
12 -6 7 3.3 4
12 -6 7 14.3 5.3
12 -6 7 13.7 7
12 -6 8 54.99 12.4
12 -6 9 7 8.7
12 -6 10 31 12
-12 7 10 21 8.9
12 -7 -10 26.1 14.6
-12 7 9 5.7 6.1
12 -7 -9 12.5 10.3
-12 7 8 -8.4 3.6
12 -7 -8 -4.3 7.4
-12 7 7 23.4 8.2
12 -7 -7 16.1 10.4
12 -7 -6 6.6 8.3
-12 7 5 13.1 7.4
-12 7 5 18.4 6
12 -7 -5 28.2 10.9
-12 7 4 4.5 6.3
-12 7 4 0.4 3.1
12 -7 -4 -2.7 6.5
-12 7 3 2.1 6.2
-12 7 3 9.1 4.4
12 -7 -3 7.1 7.2
-12 7 2 108.09 18.6
-12 7 2 93.19 12.1
12 -7 -2 87.79 16.5
-12 7 1 19.4 7.6
-12 7 1 30.8 7
12 -7 -1 16.2 8.4
-12 7 0 11.3 4.8
12 -7 0 7.9 6.8
-12 7 -1 19 6.2
12 -7 1 24.1 8.6
-12 7 -2 93.79 12.4
12 -7 2 77.29 10.1
12 -7 2 81.39 14.6
-12 7 -3 7 4.6
12 -7 3 12.8 7.1
12 -7 3 8.5 4.7
-12 7 -4 -2.1 3.1
12 -7 4 -1.1 4.4
-12 7 -5 22.8 6.8
12 -7 5 24.9 7
12 -7 5 23.4 5.7
-12 7 -6 25.6 7.6
12 -7 6 22 7.2
12 -7 6 12.4 6.5
12 -7 7 13.6 6.3
12 -7 7 9.7 7.7
12 -7 7 8.1 5
12 -7 8 -3.2 5.3
12 -7 9 12.6 7.6
12 -7 10 49.1 13.9
-12 8 9 -2.2 5.4
12 -8 -9 4.2 10.8
-12 8 8 26.6 8.9
12 -8 -8 37.3 14.7
12 -8 -7 23.7 12.9
-12 8 6 98.29 11.3
-12 8 6 93.19 13.8
12 -8 -6 106.49 21
-12 8 5 156.08 20.6
-12 8 5 160.28 17.2
12 -8 -5 197.48 28.2
-12 8 4 32.2 10.1
-12 8 4 37.6 7.1
12 -8 -4 18.2 10.1
-12 8 3 19.8 9.8
-12 8 3 31.9 7
12 -8 -3 12.7 9.8
-12 8 2 108.99 13.6
12 -8 -2 116.09 20.2
-12 8 1 3.1 4.2
12 -8 -1 9.3 7
-12 8 0 24.1 6.6
12 -8 0 9.4 8.1
-12 8 -1 2.4 3.9
12 -8 1 -3.5 5.3
-12 8 -2 108.49 13.9
12 -8 2 95.39 16.7
-12 8 -3 28.7 7.8
12 -8 3 23.8 6.3
12 -8 3 15.5 7.6
-12 8 -4 40.4 9.3
12 -8 4 36.4 8.3
-12 8 -5 148.89 17.7
12 -8 5 148.89 18.1
-12 8 -6 95.89 13.7
12 -8 6 91.49 14.7
12 -8 7 3.7 6.9
12 -8 7 15.7 6.3
12 -8 8 41.8 11.5
12 -8 9 9.5 8
-12 9 9 5.4 8.1
12 -9 -9 -1.3 10.5
-12 9 8 9.8 7.3
12 -9 -8 17.1 12.8
12 -9 -7 22.1 12.9
-12 9 6 20 6.4
12 -9 -6 14 10.8
-12 9 5 145.09 20.2
-12 9 5 96.79 18
12 -9 -5 110.89 22
-12 9 4 0.7 6.4
-12 9 4 0.7 3.7
12 -9 -4 -2.1 8.3
-12 9 3 146.49 16.8
-12 9 3 168.08 24.9
12 -9 -3 123.29 22.8
-12 9 2 35.3 8.1
12 -9 -2 41.9 13.3
-12 9 1 -0.2 3.8
12 -9 -1 2.9 6.2
-12 9 0 149.59 17.3
12 -9 0 143.19 22.1
-12 9 -1 5 4.6
12 -9 1 3.5 7.4
-12 9 -2 24.3 7
12 -9 2 29.2 10.1
-12 9 -3 146.89 17.6
12 -9 3 138.69 20.1
-12 9 -4 4.4 4.7
12 -9 4 4.6 5.5
-12 9 -5 132.99 17
12 -9 5 121.79 16.2
-12 9 -6 15 7.1
12 -9 6 22.4 8.6
12 -9 7 73.29 14.6
12 -9 8 14.8 8.8
12 -9 9 8.2 9.4
12 -10 -8 39.3 16.9
12 -10 -7 25.9 13.4
12 -10 -6 45.3 16.2
-12 10 5 0.3 7.2
12 -10 -5 7.7 11.2
-12 10 4 30.4 11.3
-12 10 4 45 8.7
12 -10 -4 33.2 13.3
-12 10 3 29.5 8.1
12 -10 -3 17.2 10.4
-12 10 2 34.3 8.8
12 -10 -2 37 12.9
-12 10 1 69.39 11.5
12 -10 -1 44.1 14.1
-12 10 0 136.59 16.8
12 -10 0 129.79 22.4
-12 10 -1 58.09 10.7
12 -10 1 48.8 13.4
-12 10 -2 24.2 7.7
12 -10 2 21.9 9.4
-12 10 -3 12.2 5.7
12 -10 3 5.7 6.9
-12 10 -4 37.1 8.7
-12 10 -5 -3.2 4.8
-12 10 -6 27.1 8.8
12 -10 6 47.8 11.5
12 -10 7 22.5 9.6
12 -10 8 64.49 14.5
12 -11 -7 38 15
12 -11 -6 7.5 12.4
12 -11 -5 25.2 14.6
-12 11 4 -0.3 4.5
12 -11 -4 6.2 9.1
-12 11 3 106.69 14.9
12 -11 -3 100.99 21.9
-12 11 2 46.5 10.2
12 -11 -2 31.8 13.1
-12 11 1 323.37 27
12 -11 -1 248.28 35.2
-12 11 0 186.58 21.9
12 -11 0 232.58 31.8
-12 11 -1 310.37 27.8
-12 11 -2 47.5 10.8
12 -11 2 50.29 14
-12 11 -3 95.89 14.9
-12 11 -4 4.4 5.6
-12 11 -5 10.2 6.7
-12 11 -6 -6.2 5.7
12 -11 7 42.9 15.5
12 -12 -6 0 11
12 -12 -5 1.1 10.1
-12 12 4 -3.8 4.6
12 -12 -4 -5.3 11.4
-12 12 3 -3.6 4.6
12 -12 -3 -8.1 8
-12 12 2 -1.5 5.3
12 -12 -2 -4.8 9.3
-12 12 1 6.6 5.7
12 -12 -1 18.3 12.5
-12 12 0 66.89 12.5
12 -12 0 46.4 15.1
-12 12 -1 1.1 5.1
12 -12 1 11.6 10.6
-12 12 -2 7.9 6.5
12 -12 2 1.1 7.7
-12 12 -3 12.8 7
-12 12 -4 4.1 6.6
-12 12 -5 1.8 6.3
-12 12 -6 5.2 7
-12 13 4 16.5 7.2
12 -13 -4 -0.4 10.2
-12 13 3 0.5 5.3
12 -13 -3 -7.7 8.5
-12 13 2 44.3 10.4
12 -13 -2 26.2 13.9
-12 13 1 -1.9 5.4
12 -13 -1 5 10.9
-12 13 0 20.9 7.9
12 -13 0 21.7 12.6
-12 13 -1 18.9 8.2
12 -13 1 3.2 8.1
-12 13 -2 15.9 7.8
12 -13 2 28.6 13.1
-12 13 -3 4.1 6.2
-12 13 -4 8.7 8.2
-12 13 -5 8.3 7.8
-12 14 2 5.8 7.4
12 -14 -2 1.1 11.3
-12 14 1 5 6.6
12 -14 -1 3.4 10.2
-12 14 0 -5.5 5.3
12 -14 0 -0.1 10.2
-12 14 -1 6.9 7.4
12 -14 1 7.9 11.5
-12 14 -2 4.2 6.5
-13 -14 1 27.7 12.2
-13 -14 1 22.5 7.9
13 14 -1 59.89 16.4
13 14 -1 29.1 10.1
-13 -14 0 26.6 8.3
13 14 0 14 8.3
13 14 0 47.7 14.6
-13 -14 -1 37.9 10
13 14 1 38.2 13.9
13 14 1 51.29 12
-13 -13 4 38.4 13.2
13 13 -4 31.7 11.2
13 13 -4 26.2 11.2
-13 -13 3 45.5 8.9
-13 -13 3 26.2 12.9
13 13 -3 25 10
13 13 -3 34.4 12.7
-13 -13 2 8 9
-13 -13 2 3.1 4.9
13 13 -2 0.9 6.2
13 13 -2 3 7.6
-13 -13 1 1.9 9.2
-13 -13 1 10 5.8
13 13 -1 4.5 8.9
13 13 -1 3 6.1
-13 -13 0 1.2 4.8
13 13 0 -0.3 7.6
13 13 0 -4.1 5
-13 -13 -1 8.2 6.4
13 13 1 9.7 9.1
13 13 1 18.8 7.6
-13 -13 -2 8.8 6.4
13 13 2 2.1 7.6
13 13 2 6 6.4
-13 -13 -3 28.9 9.2
13 13 3 30.7 12.4
13 13 3 17.2 7.5
-13 -13 -4 20.9 8
13 13 4 38.8 10.2
-13 -12 6 15.9 11.6
-13 -12 5 37.9 13.2
13 12 -5 16.7 9.1
-13 -12 4 20.9 11.4
13 12 -4 25.4 10.5
13 12 -4 10.9 7.7
-13 -12 3 26 6.8
-13 -12 3 24.8 10.9
13 12 -3 34.8 10.1
13 12 -3 24.3 10.9
-13 -12 2 3.1 4.4
-13 -12 2 11.1 9
13 12 -2 2 7.4
13 12 -2 14.8 7.1
-13 -12 1 23.1 11
-13 -12 1 7 5
13 12 -1 18.2 8.1
13 12 -1 3 8.1
-13 -12 0 15.7 6.4
13 12 0 16.3 9.4
13 12 0 14.4 7.2
-13 -12 -1 15.8 7.1
13 12 1 17.7 7.3
13 12 1 5.8 8.2
-13 -12 -2 6.3 5.6
13 12 2 -1.2 7
13 12 2 4.9 5.2
-13 -12 -3 21.3 7.9
13 12 3 30.3 8.8
13 12 3 12.3 8.6
-13 -12 -4 16.4 7.5
13 12 4 23.1 11.1
13 12 4 19.6 7.4
-13 -12 -5 16.6 7.8
13 12 5 27.7 8.2
-13 -12 -6 3.3 6.6
-13 -11 7 -1.3 5.8
-13 -11 6 17.4 12
-13 -11 6 8.2 6.5
-13 -11 5 3 9.2
13 11 -5 4.5 6.9
13 11 -5 5.6 8
-13 -11 4 18.8 9.8
-13 -11 4 20.8 5.9
13 11 -4 56.39 11.9
13 11 -4 34.8 11.7
-13 -11 3 31.3 7.1
-13 -11 3 22.5 10.4
13 11 -3 32.7 9.5
13 11 -3 27.7 10.5
-13 -11 2 11.4 8.1
-13 -11 2 23.9 6.6
13 11 -2 17.6 7.7
13 11 -2 11.8 9.2
-13 -11 1 11.3 9.3
-13 -11 1 12.2 5.4
13 11 -1 11.1 6.8
13 11 -1 7 7.2
-13 -11 0 14.4 6.3
13 11 0 12.6 6.6
13 11 0 -1.6 6
-13 -11 -1 12.4 5.9
13 11 1 13.8 8.9
13 11 1 20.7 7.5
-13 -11 -2 16 6.9
13 11 2 8.1 8.2
13 11 2 12.9 6.4
-13 -11 -3 27.2 7.7
13 11 3 12.4 6.4
13 11 3 27.8 10.8
-13 -11 -4 16.9 7.2
13 11 4 19.3 7.8
13 11 4 27.9 10.6
13 11 4 33.2 8.4
-13 -11 -5 4.6 5.9
13 11 5 -0.9 4.6
13 11 5 6.8 6.7
13 11 5 7.7 8.1
-13 -11 -6 5.1 6.5
13 11 6 4.4 7.2
13 11 7 -0.7 6.8
-13 -10 8 7.6 6.9
-13 -10 7 13.4 7.8
-13 -10 6 87.59 19.7
-13 -10 5 12.7 9.4
13 10 -5 6.2 7.3
13 10 -5 5 6.8
-13 -10 4 59.39 15.1
-13 -10 4 57.99 8.3
13 10 -4 40.3 11.3
13 10 -4 29 9.2
-13 -10 3 32.3 11.2
-13 -10 3 25.6 6.4
13 10 -3 41.5 10.2
13 10 -3 40.8 12
-13 -10 2 67.19 10.2
-13 -10 2 60.79 13.7
13 10 -2 74.19 14.8
13 10 -2 45.9 10.4
-13 -10 1 50.79 9.3
-13 -10 1 81.79 16.5
13 10 -1 68.29 15
13 10 -1 76.39 12.9
-13 -10 0 55.29 9.9
13 10 0 54.59 13.3
13 10 0 43.3 9.4
-13 -10 -1 39.7 8.8
13 10 1 63.19 10.5
13 10 1 87.29 16.1
-13 -10 -2 50.89 9.7
13 10 2 60.49 11.1
13 10 2 57.09 14.2
-13 -10 -3 50.79 10
13 10 3 34 8.8
13 10 3 54.19 10.2
13 10 3 37.2 12.1
-13 -10 -4 51.69 10.1
13 10 4 49 9.9
13 10 4 43.4 10.2
13 10 4 40 12.9
-13 -10 -5 5.6 5.6
13 10 5 -1.2 4.1
13 10 5 15.1 9.6
13 10 5 13.3 7.2
-13 -10 -6 38.3 9.8
13 10 6 61.99 15.1
13 10 6 48.4 11.5
13 10 7 13.7 8.8
-13 -9 8 4.9 6.6
-13 -9 7 13.6 8.1
-13 -9 5 17.5 9.5
13 9 -5 2.4 6.8
13 9 -5 19 7.7
-13 -9 4 -0.6 6.6
-13 -9 4 3.5 3.1
13 9 -4 -2.5 4.7
13 9 -4 2.3 6.5
-13 -9 3 58.49 13.9
-13 -9 3 77.79 10.4
13 9 -3 70.29 14
13 9 -3 80.69 13
-13 -9 2 44.5 11.3
-13 -9 2 45.6 8
13 9 -2 30 9.9
13 9 -2 78.59 12.1
-13 -9 1 97.89 12.5
-13 -9 1 106.59 18.2
13 9 -1 95.49 13.9
13 9 -1 102.09 16.9
-13 -9 0 23.3 6.5
13 9 0 17.5 8.3
13 9 0 21.9 7.1
-13 -9 -1 101.19 13.5
13 9 1 92.19 16.6
13 9 1 114.19 15.3
13 9 1 120.09 15.4
-13 -9 -2 86.79 12.3
13 9 2 66.69 10.9
13 9 2 52.89 13.4
13 9 2 56.09 9.8
-13 -9 -3 58.29 10.6
13 9 3 82.89 12.2
13 9 3 70.99 14.5
13 9 3 62.19 10.8
-13 -9 -4 -4.1 3.8
13 9 4 0.3 4.5
13 9 4 -3 3.6
13 9 4 -6.2 4.3
-13 -9 -5 34.5 8.8
13 9 5 14 5.6
13 9 5 6.4 5.7
13 9 5 9.5 7.6
-13 -9 -6 5.1 5.8
13 9 6 3.9 6.4
13 9 6 5.1 5.9
13 9 6 13.5 8.4
13 9 7 -3.1 6.2
13 9 8 3.3 7.5
-13 -8 9 3.5 7.4
-13 -8 8 6.8 7.9
-13 -8 7 2.3 5.2
13 8 -6 15.4 7.9
-13 -8 5 56.29 14.8
13 8 -5 42.2 9.6
13 8 -5 48.3 12.5
-13 -8 4 31.5 5.8
-13 -8 4 30.5 11.1
13 8 -4 27.9 9.9
13 8 -4 38.3 8.9
-13 -8 3 48.9 12.9
-13 -8 3 48.1 7.7
13 8 -3 56.19 12.3
13 8 -3 44.1 9.5
-13 -8 2 8.7 6.6
-13 -8 2 10 4.4
13 8 -2 12.6 7.6
13 8 -2 15 6.2
-13 -8 1 20.7 8.8
-13 -8 1 28.5 6.5
13 8 -1 26.4 7.2
13 8 -1 33.6 9.8
-13 -8 0 70.29 14.5
-13 -8 0 90.79 11.8
13 8 0 65.89 9.3
13 8 0 77.39 14.3
13 8 0 77.49 11.8
-13 -8 -1 24.1 6.7
13 8 1 22.8 8.3
13 8 1 20.3 6.5
13 8 1 21.3 5.9
-13 -8 -2 12.6 5.7
13 8 2 13.3 5.7
13 8 2 21.9 8.6
13 8 2 14.1 5.5
-13 -8 -3 56.19 10
13 8 3 46.7 12.3
13 8 3 37.6 8.6
13 8 3 69.99 10.5
-13 -8 -4 24 7.1
13 8 4 24.1 9.9
13 8 4 27.1 8.1
13 8 4 39.8 8
-13 -8 -5 33.3 8.6
13 8 5 48.8 8.6
13 8 5 43.6 10.6
13 8 5 58.59 13.2
13 8 5 48 10.7
-13 -8 -6 24.3 7.2
13 8 6 20.5 9.2
13 8 6 16.8 7.3
13 8 6 19.7 7.6
13 8 7 18.5 9.4
13 8 7 16.3 8.1
13 8 8 19.7 8.9
13 8 9 26.1 10.4
-13 -7 9 19.6 8.9
-13 -7 8 3.1 6.2
-13 -7 7 0.1 5.7
13 7 -6 12.9 7.2
-13 -7 5 4.1 8.1
13 7 -5 11.4 5.7
13 7 -5 14.6 7.4
-13 -7 4 36.7 11.2
-13 -7 4 42.7 6.4
13 7 -4 45 8.9
13 7 -4 50.79 11.5
-13 -7 3 44.9 10.9
-13 -7 3 20.1 8.1
-13 -7 3 14.7 4.6
13 7 -3 35.1 9.7
13 7 -3 30.1 7.3
-13 -7 2 111.59 17.5
-13 -7 2 119.89 13.2
-13 -7 2 131.19 18.6
13 7 -2 110.29 13.7
13 7 -2 111.99 17.4
-13 -7 1 7.1 6.6
-13 -7 1 12.2 4.6
13 7 -1 4.7 3.1
13 7 -1 17 5.1
13 7 -1 1.2 4.6
-13 -7 0 13.5 8.3
-13 -7 0 10.9 4.6
13 7 0 10.3 5
13 7 0 6.4 3.8
13 7 0 14.3 7.1
-13 -7 -1 10.9 4.9
13 7 1 5.1 3.5
13 7 1 -1.8 4.5
13 7 1 5.6 4.2
-13 -7 -2 113.19 13.5
13 7 2 97.29 15.8
13 7 2 81.79 11.6
13 7 2 138.09 14.8
-13 -7 -3 14.9 6.2
13 7 3 19.5 6.5
13 7 3 30.7 7
13 7 3 24.4 8.7
-13 -7 -4 43.7 8.6
13 7 4 37.5 8.3
13 7 4 51.09 12.4
13 7 4 34.5 9.5
13 7 4 35.5 7.4
-13 -7 -5 14.4 6.4
13 7 5 2.4 3.9
13 7 5 6.2 6.2
13 7 5 10.9 6.3
13 7 5 11.3 6.1
-13 -7 -6 8.3 5.9
13 7 6 15.3 8.5
13 7 6 23 7.5
13 7 6 25.3 5.9
13 7 6 16.4 6.9
13 7 7 -2.7 5.3
13 7 7 -5.2 4.4
13 7 7 1.9 5.6
13 7 8 5.8 7.1
13 7 9 38 12.2
-13 -6 10 29.5 10.5
-13 -6 9 9.4 7.8
-13 -6 8 50.79 12.2
-13 -6 7 128.39 17.9
-13 -6 7 122.09 17.5
-13 -6 6 49.7 10.6
13 6 -6 59.49 12.4
-13 -6 5 151.38 17
13 6 -5 91.89 15.3
13 6 -5 119.09 13.9
-13 -6 4 49.99 9.6
-13 -6 4 53.19 13.2
-13 -6 4 31 5.4
13 6 -4 40.5 7.9
13 6 -4 47.2 10.8
-13 -6 3 109.79 16.3
-13 -6 3 130.29 19.7
-13 -6 3 132.69 11.7
13 6 -3 133.59 14.9
13 6 -3 130.69 18.4
-13 -6 2 34.3 6.1
-13 -6 2 23.9 8.6
-13 -6 2 17 7.8
13 6 -2 23.9 7.8
13 6 -2 29.3 5.1
13 6 -2 38.9 7.9
-13 -6 1 2.8 5.5
-13 -6 1 2.7 5.5
-13 -6 1 3 3.4
13 6 -1 -0.4 2.3
13 6 -1 -4.3 3.2
13 6 -1 4.5 3.9
-13 -6 0 64.89 9.3
-13 -6 0 84.99 14.5
13 6 0 49.4 7.6
13 6 0 76.59 13.3
13 6 0 68.29 10
-13 -6 -1 10.1 4.7
13 6 1 4 3.7
13 6 1 3.7 4.8
13 6 1 0.6 2.8
-13 -6 -2 19.1 6.2
13 6 2 25.9 5.9
13 6 2 36.2 7.2
13 6 2 25.5 8.1
-13 -6 -3 107.59 14.1
13 6 3 117.19 17.9
13 6 3 137.89 15.2
13 6 3 137.29 15
13 6 3 131.39 18.4
-13 -6 -4 37.5 8.7
13 6 4 60.19 9
13 6 4 32.6 9
13 6 4 52.19 9.1
13 6 4 47.9 11.1
-13 -6 -5 95.79 12.9
13 6 5 89.59 15.3
13 6 5 76.29 13.5
13 6 5 110.29 12.1
13 6 5 124.09 15.2
-13 -6 -6 72.69 11.2
13 6 6 61.79 11.9
13 6 6 49.3 12.5
13 6 6 55.99 11.7
13 6 6 60.99 8.4
13 6 6 64.09 12.2
13 6 7 88.69 16.1
13 6 7 80.19 12.1
13 6 7 77.09 12
13 6 7 82.69 14.6
13 6 8 31.7 10.2
13 6 9 7.1 6.9
13 6 10 36.5 11.9
-13 -5 10 24.7 9.3
-13 -5 10 56.19 13.7
-13 -5 9 -7 4.5
-13 -5 9 6.3 6.6
-13 -5 8 106.99 16.2
-13 -5 8 46.6 11.5
-13 -5 7 28.4 8.6
-13 -5 7 16.4 7.5
13 5 -7 33 9.9
-13 -5 6 155.68 18.5
13 5 -6 150.48 20.1
-13 -5 5 27.4 8.1
13 5 -5 34.9 7.2
13 5 -5 22.9 8.2
-13 -5 4 417.16 27.7
-13 -5 4 409.16 31.5
-13 -5 4 394.86 31.9
-13 -5 4 394.26 35.8
13 5 -4 386.66 33.5
13 5 -4 398.16 30.3
-13 -5 3 176.88 17.2
-13 -5 3 182.78 19.3
-13 -5 3 224.38 15.7
-13 -5 3 149.88 21.7
13 5 -3 196.38 17
13 5 -3 161.98 21.1
-13 -5 2 51.09 10.8
-13 -5 2 65.19 13.4
-13 -5 2 51.09 8.8
-13 -5 2 60.79 8.1
13 5 -2 37.6 9.5
13 5 -2 59.69 9.1
-13 -5 1 41.9 9.4
-13 -5 1 46.3 7.9
-13 -5 1 46.4 7.6
-13 -5 1 49.6 10.5
13 5 -1 43.1 6.4
13 5 -1 40 7.5
13 5 -1 45.1 10.4
-13 -5 0 71.19 13.7
-13 -5 0 52.29 8.3
-13 -5 0 48.1 10.3
13 5 0 51.19 10.9
13 5 0 46.1 8.2
13 5 0 61.49 7.9
-13 -5 -1 49.3 10.6
-13 -5 -1 47.9 8.3
13 5 1 48.2 7.3
13 5 1 34.6 9
13 5 1 42.7 7.6
-13 -5 -2 43 8.2
13 5 2 55.69 11.2
13 5 2 62.39 8.9
13 5 2 45.6 10.4
13 5 2 47.3 7.7
-13 -5 -3 190.48 16.7
13 5 3 167.18 15.6
13 5 3 170.38 19.7
13 5 3 169.28 16
13 5 3 151.58 20.3
-13 -5 -4 394.96 29.8
13 5 4 367.76 29.7
13 5 4 377.56 28.6
13 5 4 370.86 33
13 5 4 418.16 33.1
-13 -5 -5 17.5 6.5
13 5 5 15.5 6.8
13 5 5 29.7 5.7
13 5 5 28.9 9.3
13 5 5 40.5 10.4
13 5 5 20.3 6.9
-13 -5 -6 154.78 16.9
13 5 6 117.49 16.4
13 5 6 151.58 12.6
13 5 6 174.28 20.9
13 5 6 126.79 16.7
13 5 6 131.89 15.7
13 5 7 24.5 7
13 5 7 29.4 8.4
13 5 7 16.6 5.4
13 5 7 27.5 8.9
13 5 8 82.59 14.7
13 5 9 1.3 6.4
13 5 10 28.4 10.6
-13 -4 10 -5.4 4.6
-13 -4 10 1.9 6.9
-13 -4 9 -0.3 6.2
-13 -4 9 7 7.3
-13 -4 8 11.2 6.5
-13 -4 8 18.4 7.8
-13 -4 7 4.8 5.3
-13 -4 7 7.3 5.7
13 4 -7 -2.3 5.5
-13 -4 6 117.29 15.7
13 4 -6 129.79 18.3
-13 -4 5 46.4 10
13 4 -5 70.89 13.1
13 4 -5 48.4 8.5
-13 -4 4 55.79 9.7
-13 -4 4 49.1 6
-13 -4 4 46.2 8.9
13 4 -4 50.49 8.3
13 4 -4 55.89 11.4
-13 -4 3 239.38 19.7
-13 -4 3 217.18 16.7
-13 -4 3 230.08 21.2
-13 -4 3 259.77 27.5
13 4 -3 169.38 22.1
13 4 -3 192.28 17.7
-13 -4 2 43 10.4
-13 -4 2 33.7 7.2
-13 -4 2 40.4 6.7
-13 -4 2 37.9 10.8
13 4 -2 34.2 8.9
13 4 -2 28 6.4
-13 -4 1 20.7 5.7
-13 -4 1 30.9 6
-13 -4 1 20 7.7
-13 -4 1 15.4 8
13 4 -1 20.9 5.2
13 4 -1 19 6.9
-13 -4 0 17.5 5.1
-13 -4 0 15 4.7
-13 -4 0 13.1 6.1
-13 -4 0 24.7 8.7
-13 -4 0 35.5 10
13 4 0 18.1 5.3
13 4 0 13.5 6.2
13 4 0 16.4 6.1
13 4 0 16.7 4.3
-13 -4 -1 23.8 6
-13 -4 -1 21.7 5
-13 -4 -1 36.1 9.1
-13 -4 -1 33.7 9.6
13 4 1 21.5 7.1
13 4 1 18.2 4.5
13 4 1 12.8 4.2
13 4 1 21.4 7
-13 -4 -2 29.4 6.7
13 4 2 23.7 5.5
13 4 2 26.7 5.8
13 4 2 19.8 7.3
13 4 2 30.1 8.7
-13 -4 -3 206.58 18.1
13 4 3 178.98 17
13 4 3 228.88 22.2
13 4 3 205.18 20.6
13 4 3 213.58 18.3
-13 -4 -4 40.4 7.9
13 4 4 31.2 9.1
13 4 4 48.6 11.1
13 4 4 45.6 7.4
13 4 4 39.2 9.7
13 4 4 46.3 8.4
-13 -4 -5 27.9 7.3
13 4 5 46.4 10.3
13 4 5 31.7 6.3
13 4 5 36.7 9
13 4 5 46.8 9.7
13 4 5 38.2 8.1
-13 -4 -6 154.78 16.1
13 4 6 122.09 16
13 4 6 156.28 19.5
13 4 6 113.39 14.2
13 4 6 120.19 11.2
13 4 6 132.19 15.2
13 4 7 6.3 5.9
13 4 7 7.2 5.5
13 4 7 10.2 4.9
13 4 7 5 3.8
13 4 8 15.8 7.2
13 4 9 2.9 5.9
13 4 10 -3 6
-13 -3 11 6.1 7
-13 -3 11 11.1 8.3
-13 -3 10 33.6 10.6
-13 -3 10 27.4 9.3
-13 -3 9 13.2 7.7
-13 -3 9 9.1 6.3
-13 -3 8 26.6 8.9
-13 -3 8 12.6 7.2
-13 -3 7 11.9 6.8
-13 -3 7 19.3 6.9
13 3 -7 19.2 8.1
-13 -3 6 96.19 13.1
-13 -3 6 79.19 13.4
13 3 -6 121.69 17.5
-13 -3 5 -0.3 3.9
13 3 -5 0.5 4.3
-13 -3 4 155.08 11.9
-13 -3 4 149.19 15.2
-13 -3 4 155.08 17.3
13 3 -4 207.28 22.9
-13 -3 3 98.39 9.5
-13 -3 3 121.69 14
-13 -3 3 112.09 15.4
13 3 -3 82.89 14.4
-13 -3 2 352.06 24.6
-13 -3 2 358.96 28.3
-13 -3 2 293.57 22.5
-13 -3 2 278.87 27
13 3 -2 273.17 29.3
13 3 -2 276.17 26.7
13 3 -2 292.27 23.3
13 3 -2 324.17 32.8
-13 -3 1 133.29 17.4
-13 -3 1 120.39 16.6
-13 -3 1 99.69 11.2
13 3 -1 62.59 12.9
13 3 -1 99.59 11.5
13 3 -1 144.19 16.3
13 3 -1 114.79 15.6
-13 -3 0 47.4 11.5
-13 -3 0 41.8 8.9
-13 -3 0 58.09 8.3
-13 -3 0 36.5 6.9
13 3 0 98.29 17.3
13 3 0 62.59 11.1
13 3 0 82.49 20.2
13 3 0 50.19 7.8
-13 -3 -1 97.29 11.7
-13 -3 -1 103.69 10.8
-13 -3 -1 121.09 17.9
-13 -3 -1 108.09 16.4
-13 -3 -1 90.89 12.8
13 3 1 92.09 13.7
13 3 1 93.59 11.5
13 3 1 102.89 14.6
13 3 1 108.99 10.4
-13 -3 -2 252.67 26.2
-13 -3 -2 265.77 20.8
-13 -3 -2 226.68 18.3
-13 -3 -2 260.77 22.1
13 3 2 274.57 26.1
13 3 2 255.87 24.2
13 3 2 236.28 19.8
13 3 2 253.47 22.9
13 3 2 255.47 20.1
-13 -3 -3 91.49 11.6
13 3 3 80.99 13.2
13 3 3 93.19 14.5
13 3 3 110.49 16.8
13 3 3 95.99 11.7
13 3 3 105.49 11.4
-13 -3 -4 163.78 16.7
13 3 4 170.98 15.8
13 3 4 153.38 14
13 3 4 142.29 18.3
13 3 4 170.68 18.8
13 3 4 154.48 17.7
-13 -3 -5 -2.2 4
13 3 5 2.3 3.9
13 3 5 -1 3.4
13 3 5 0.7 4.3
13 3 5 -1.6 3.1
13 3 5 2.3 2.6
-13 -3 -6 79.09 11.3
13 3 6 79.89 11.8
13 3 6 87.59 13.6
13 3 6 91.79 13.2
13 3 6 76.09 8.6
13 3 6 80.59 12.4
13 3 7 17.7 5.2
13 3 7 10 6.3
13 3 7 18.7 5.5
13 3 8 16.9 7.1
13 3 9 13.8 7.6
13 3 11 14.9 9.2
-13 -2 11 15.6 8
-13 -2 10 42.1 10.8
-13 -2 9 3.3 6.1
-13 -2 9 41.1 9.8
-13 -2 8 10.5 6
-13 -2 8 -0.3 5.1
13 2 -8 -1.7 6.9
-13 -2 7 39 10.1
-13 -2 7 74.09 11.8
13 2 -7 74.89 14.5
-13 -2 6 6.5 5.3
-13 -2 6 -3.2 2.9
13 2 -6 11.3 7.2
-13 -2 5 325.67 26.4
13 2 -5 298.77 28.1
-13 -2 4 299.87 24.7
-13 -2 4 280.67 23.6
-13 -2 4 308.27 20.4
13 2 -4 306.37 27.5
-13 -2 3 149.79 12.4
-13 -2 3 157.08 16.6
-13 -2 3 149.39 16.3
13 2 -3 118.99 17.7
13 2 -3 176.98 19.2
-13 -2 2 243.88 19
-13 -2 2 234.08 23
-13 -2 2 282.47 20.9
13 2 -2 255.87 26.5
13 2 -2 246.28 24.3
13 2 -2 222.18 22.6
-13 -2 1 19.8 4.9
-13 -2 1 5.9 3.8
-13 -2 1 6.7 6.4
-13 -2 1 13.6 6.6
13 2 -1 4.6 4.7
13 2 -1 15.7 8.8
13 2 -1 15.1 5.8
-13 -2 0 124.19 12.4
-13 -2 0 121.79 12.7
-13 -2 0 103.59 13.9
-13 -2 0 96.39 17.2
13 2 0 93.49 14.7
13 2 0 140.79 21.1
13 2 0 119.19 12.3
13 2 0 88.09 14.2
-13 -2 -1 6.2 7.5
-13 -2 -1 14.2 4.4
-13 -2 -1 7.3 5
-13 -2 -1 10.9 3.8
13 2 1 4 4
13 2 1 11.7 4.1
13 2 1 1 4.3
13 2 1 14.2 7.4
-13 -2 -2 169.88 16.6
-13 -2 -2 212.58 16.6
-13 -2 -2 171.78 20.6
-13 -2 -2 168.78 13.9
13 2 2 182.18 17.9
13 2 2 178.38 19.2
13 2 2 195.78 15.9
13 2 2 177.98 15.4
13 2 2 176.28 19.9
-13 -2 -3 138.09 15.1
-13 -2 -3 135.09 10.4
-13 -2 -3 136.69 14.3
13 2 3 140.79 13.1
13 2 3 124.79 12
13 2 3 103.59 15.7
13 2 3 111.29 15.4
13 2 3 138.19 15.9
-13 -2 -4 300.87 23.5
13 2 4 307.67 26.9
13 2 4 274.97 26
13 2 4 285.57 22.3
13 2 4 310.67 25.7
13 2 4 304.97 24
-13 -2 -5 371.16 26.7
13 2 5 341.77 24.7
13 2 5 329.57 28.7
13 2 5 305.37 26.5
13 2 5 328.37 28.3
13 2 5 358.26 28.5
-13 -2 -6 2.7 4.5
13 2 6 4.7 2.7
13 2 6 -1.1 3.2
13 2 6 1 3.3
13 2 6 0.9 4
13 2 6 6.2 4.8
13 2 7 58.99 11.3
13 2 7 52.69 8.4
13 2 7 71.79 9.3
13 2 8 -0.5 3.9
13 2 9 7.5 6.7
13 2 10 38.1 11.5
13 2 11 18 9.8
-13 -1 11 10.5 7.2
-13 -1 10 14.9 7.8
-13 -1 9 -8.4 4.7
-13 -1 8 51.79 11.2
-13 -1 8 39.9 9.4
13 1 -8 45.1 11.9
-13 -1 7 16 6.1
-13 -1 7 15.6 7
13 1 -7 29.7 9.8
-13 -1 6 62.59 9.7
-13 -1 6 64.69 11.5
13 1 -6 61.89 13.4
-13 -1 5 140.79 17.2
13 1 -5 153.28 20.9
-13 -1 4 36.5 7.5
-13 -1 4 32.7 4.3
-13 -1 4 25 7.4
13 1 -4 23.8 8.8
-13 -1 3 183.48 17.9
-13 -1 3 183.28 16.6
-13 -1 3 165.18 13.5
13 1 -3 148.39 20.7
-13 -1 2 51.49 7.3
-13 -1 2 57.39 10.7
-13 -1 2 66.39 9.4
13 1 -2 70.99 14.2
13 1 -2 59.99 11.7
13 1 -2 62.69 14
-13 -1 1 87.49 10.3
-13 -1 1 82.99 14.5
-13 -1 1 85.39 10.2
13 1 -1 114.59 19.2
13 1 -1 90.49 14.1
13 1 -1 61.99 11.3
-13 -1 0 -2.3 3.8
-13 -1 0 -1.2 2.6
-13 -1 0 2 3
-13 -1 0 -0.2 5.2
13 1 0 0.5 5.3
13 1 0 -4.2 5.5
13 1 0 0.6 3.6
-13 -1 -1 75.99 14.7
-13 -1 -1 62.09 8.9
-13 -1 -1 48.9 9.4
-13 -1 -1 49.6 7.5
13 1 1 62.79 11
13 1 1 68.89 12.5
-13 -1 -2 34.1 7
-13 -1 -2 46.1 8.5
-13 -1 -2 50.39 6.5
-13 -1 -2 62.79 13.8
13 1 2 47.7 7.3
13 1 2 47.8 11
13 1 2 41.8 7.1
13 1 2 38.4 9.7
13 1 2 40 9
-13 -1 -3 147.09 14.2
-13 -1 -3 128.79 14.1
-13 -1 -3 95.99 19.5
-13 -1 -3 129.09 10.2
13 1 3 125.49 11.7
13 1 3 128.79 15.6
13 1 3 120.29 13.4
13 1 3 127.99 16.1
13 1 3 101.99 15.5
-13 -1 -4 42.3 7.8
-13 -1 -4 21.4 6.2
13 1 4 30.2 5.7
13 1 4 31.7 7.7
13 1 4 36 9.2
13 1 4 27.9 8.3
13 1 4 33.4 6.6
-13 -1 -5 119.09 13.6
13 1 5 101.89 13.4
13 1 5 116.59 11.7
13 1 5 112.29 15.3
13 1 5 107.89 14.4
13 1 5 112.79 15.5
-13 -1 -6 65.09 9.7
13 1 6 52.29 9.5
13 1 6 54.89 6.6
13 1 6 62.19 10.6
13 1 6 50.39 9.3
13 1 6 46.3 9.2
13 1 7 17 4.6
13 1 7 18.8 4.9
13 1 7 12.5 5.7
13 1 8 31.6 9.1
13 1 9 5.6 5.7
13 1 10 41.5 11.2
13 1 11 3 6.7
-13 0 11 5.1 7.1
-13 0 10 6.2 6.8
-13 0 9 4.1 5.6
-13 0 8 5.1 6.2
13 0 -8 0.1 6.2
-13 0 7 3 5.4
-13 0 7 -0.4 3.8
13 0 -7 -3 5.2
-13 0 6 -0.4 3.3
-13 0 6 -4.1 3.9
13 0 -6 -5.9 4.5
-13 0 5 -0.8 3.8
13 0 -5 1.3 5.1
-13 0 4 -2.8 1.4
-13 0 4 1.7 3.8
-13 0 4 -4.6 3.1
13 0 -4 -0.2 4.2
-13 0 3 -4.4 3.3
-13 0 3 -0.5 2.4
-13 0 3 0 3.8
13 0 -3 -2.5 4.9
-13 0 2 1 2.6
-13 0 2 1.4 5.2
-13 0 2 -1.8 2.8
13 0 -2 -5.9 5
13 0 -2 -1.8 3.8
-13 0 1 0.8 2.7
-13 0 1 -2.8 5.2
-13 0 1 1.4 2.9
13 0 -1 1.2 4.2
13 0 -1 0.7 5.3
-13 0 0 -0.8 5.1
-13 0 0 -2 2.5
-13 0 0 3.8 3.6
13 0 0 4.7 4.4
13 0 0 1 7.8
13 0 0 0.6 3.5
-13 0 -1 -4.3 2.4
-13 0 -1 2 2.8
-13 0 -1 8.9 11.9
13 0 1 1.8 3.9
13 0 1 0.7 3.4
13 0 1 -0.3 3
-13 0 -2 4 6.1
-13 0 -2 0.9 3.2
-13 0 -2 -0.5 3.6
-13 0 -2 2.1 2.6
13 0 2 -2.3 3.1
13 0 2 -2.2 3.7
13 0 2 -3 3.2
-13 0 -3 -0.7 3.4
-13 0 -3 1.9 2.4
-13 0 -3 -4.2 4.4
-13 0 -3 0.1 3.7
13 0 3 -2.5 2
13 0 3 -0.4 4.1
13 0 3 0.4 2.2
13 0 3 -2.6 3.6
13 0 3 3.1 4.1
-13 0 -4 -5.9 2.8
-13 0 -4 -2.1 3.3
13 0 4 -2 2.2
13 0 4 -1.9 3.2
13 0 4 -3.7 2.3
13 0 4 4.2 4.8
13 0 4 3.1 4
-13 0 -5 -2.5 3.4
13 0 5 -3.7 1.9
13 0 5 1.6 4.1
13 0 5 -2.3 3.6
13 0 5 -0.7 2.9
13 0 5 -3 3.3
-13 0 -6 -1.1 4.1
13 0 6 -2.5 1.9
13 0 6 -1.9 2.7
13 0 6 -2.9 3
13 0 6 1 3.5
13 0 7 1.2 4
13 0 7 1.1 2.5
13 0 8 3.7 4.5
13 0 9 1.2 4.7
13 0 10 7 6.4
13 0 11 -5.2 5.5
-13 1 11 2.6 6.5
-13 1 10 15.5 9
-13 1 9 -2.5 5.5
-13 1 8 51.59 10.8
13 -1 -8 32.2 11
-13 1 7 17 7.5
13 -1 -7 31.1 10.2
-13 1 6 69.79 12.2
13 -1 -6 76.29 15.2
-13 1 5 145.29 16.2
-13 1 5 114.59 11
13 -1 -5 98.39 16.8
-13 1 4 34 4.6
-13 1 4 52.79 9.4
-13 1 4 33.1 7.3
13 -1 -4 22.9 9.4
-13 1 3 119.89 11.2
-13 1 3 138.99 15.5
13 -1 -3 146.59 19.6
-13 1 2 58.29 7.5
-13 1 2 38.4 8.5
13 -1 -2 29.8 9.7
13 -1 -2 35.3 9.6
-13 1 1 86.19 10
-13 1 1 77.89 13.1
13 -1 -1 81.09 13.8
13 -1 -1 96.89 14.4
-13 1 0 -2.7 5.4
-13 1 0 0.8 3.1
13 -1 0 -5.2 3.6
13 -1 0 -0.6 4.9
-13 1 -1 56.89 11.5
-13 1 -1 63.79 8.8
13 -1 1 35.3 9.1
-13 1 -2 38.6 6.8
-13 1 -2 38 9.9
13 -1 2 27.8 6.6
13 -1 2 36.8 9.3
13 -1 2 29.5 7.6
-13 1 -3 92.39 18.6
-13 1 -3 119.79 13.1
13 -1 3 123.59 15.1
13 -1 3 157.18 12.9
13 -1 3 126.29 15.5
13 -1 3 104.29 15.3
-13 1 -4 21.8 5.8
13 -1 4 22 7
13 -1 4 36.4 8.1
13 -1 4 36.3 6.2
13 -1 4 28 6.1
13 -1 4 43.2 9.3
-13 1 -5 112.79 13.2
13 -1 5 132.39 15.3
13 -1 5 115.29 10.6
13 -1 5 100.99 14.6
13 -1 5 117.99 16.8
13 -1 5 116.49 13.8
-13 1 -6 46.7 8.8
13 -1 6 73.59 11.2
13 -1 6 60.29 10.1
13 -1 6 51.59 9.4
13 -1 6 58.59 6.8
13 -1 7 26.4 7.5
13 -1 7 27.9 5.9
13 -1 7 24.1 5.4
13 -1 8 35.9 9.2
13 -1 9 -0.7 4.6
13 -1 10 5.1 7.2
13 -1 11 3.9 6.1
-13 2 11 17.4 8.9
-13 2 10 41 11.1
-13 2 9 8.9 6.4
13 -2 -9 11.8 8.7
-13 2 8 6.2 6.8
13 -2 -8 8.3 8
-13 2 7 71.49 12.5
13 -2 -7 60.79 13.9
-13 2 6 -0.5 4.7
13 -2 -6 -3.8 5.4
13 -2 -5 325.07 30.5
-13 2 4 276.87 20.4
-13 2 4 317.17 24.7
13 -2 -4 294.17 28.1
-13 2 3 116.49 11.2
-13 2 3 126.39 15.4
13 -2 -3 170.98 20.9
-13 2 2 194.28 17.5
-13 2 2 245.98 22.6
13 -2 -2 237.18 26.6
13 -2 -2 239.28 23
-13 2 1 19.4 4.8
-13 2 1 19.4 8
13 -2 -1 7.3 6
13 -2 -1 10.4 6.1
-13 2 0 95.59 10.9
-13 2 0 129.99 16.2
13 -2 0 76.79 13.6
13 -2 0 82.79 13.5
-13 2 -1 17.1 4.8
-13 2 -1 17.3 8.3
13 -2 1 17.9 6.5
13 -2 1 3.3 3.6
-13 2 -2 167.18 19.7
-13 2 -2 194.98 15.6
13 -2 2 158.58 19.7
13 -2 2 173.68 19
-13 2 -3 116.99 13.4
13 -2 3 114.29 15.4
13 -2 3 132.59 15.8
13 -2 3 133.79 16.1
-13 2 -4 296.17 22.8
13 -2 4 281.87 22.4
13 -2 4 278.97 25.4
13 -2 4 283.57 23.9
13 -2 4 278.47 25.8
-13 2 -5 365.96 26.3
13 -2 5 346.57 26.2
13 -2 5 318.37 24.1
13 -2 5 350.56 27.1
13 -2 5 319.87 28
13 -2 5 311.47 27.9
-13 2 -6 5.3 4.2
13 -2 6 -2.2 3
13 -2 6 3.6 4.1
13 -2 6 2.9 3.8
13 -2 6 2.5 2.4
13 -2 7 57.59 8.7
13 -2 7 62.09 8.8
13 -2 7 48.8 9.8
13 -2 8 0.6 4.5
13 -2 9 6.2 6
13 -2 10 63.59 13.1
13 -2 11 20 9.3
-13 3 11 21.3 8.4
-13 3 11 11.3 8.6
-13 3 10 23.8 10.2
-13 3 9 3.7 6.4
13 -3 -9 12.4 8.5
-13 3 8 30.2 9
13 -3 -8 39 12.6
-13 3 7 31.1 8.7
13 -3 -7 1 6.2
13 -3 -6 106.59 19
-13 3 5 3 3.4
13 -3 -5 -0.1 6.2
-13 3 4 161.98 12.7
-13 3 4 153.68 16.8
13 -3 -4 178.08 23.4
-13 3 3 106.19 11.3
-13 3 3 109.79 16.1
13 -3 -3 153.88 21
-13 3 2 294.77 26.8
-13 3 2 275.17 22.1
13 -3 -2 327.67 31.5
13 -3 -2 275.97 27
-13 3 1 137.89 18.2
-13 3 1 117.19 13
13 -3 -1 152.28 18.2
13 -3 -1 111.49 17.7
-13 3 0 51.99 7.8
-13 3 0 48.6 9.9
13 -3 0 56.49 12
13 -3 0 47.6 10.2
-13 3 -1 103.49 11.8
-13 3 -1 101.89 15.7
13 -3 1 120.19 16.2
-13 3 -2 237.98 25
-13 3 -2 267.07 20.6
13 -3 2 234.88 23.6
13 -3 2 284.87 23.8
-13 3 -3 100.09 11.8
13 -3 3 75.39 13.3
13 -3 3 84.19 12.9
-13 3 -4 136.79 15.2
13 -3 4 128.09 16.1
13 -3 4 151.38 13.8
13 -3 4 189.28 16.8
13 -3 4 148.49 17.4
-13 3 -5 0.5 3.6
13 -3 5 0.8 3
13 -3 5 5 4.6
13 -3 5 1.9 2.8
13 -3 5 1 3.6
-13 3 -6 94.29 12.5
13 -3 6 84.29 13.2
13 -3 6 75.29 12
13 -3 6 86.39 9.1
13 -3 6 103.09 13
13 -3 7 19.1 5.6
13 -3 7 28 7.1
13 -3 7 17.7 5.2
13 -3 8 30.1 7.8
13 -3 9 18 7.1
13 -3 10 42 10.3
13 -3 11 8 7.5
-13 4 10 -5.8 6.4
-13 4 10 -4.8 5.2
-13 4 9 1 5.5
13 -4 -9 -3.5 7.8
-13 4 8 7.2 6.6
13 -4 -8 7 8.9
13 -4 -7 8.2 8.5
13 -4 -6 130.69 20.7
-13 4 5 43.3 8.2
13 -4 -5 47.5 12.9
-13 4 4 42.4 6.2
-13 4 4 38.3 9.1
13 -4 -4 52.59 12.6
-13 4 3 198.28 21.3
-13 4 3 217.28 16.9
13 -4 -3 193.08 25
-13 4 2 47.1 7.3
-13 4 2 24.6 9.5
13 -4 -2 43 11.4
-13 4 1 24.1 8.4
-13 4 1 39.2 7
13 -4 -1 18.4 7.9
-13 4 0 16.4 5.2
-13 4 0 19.5 8.3
13 -4 0 21.3 8.5
-13 4 -1 21.7 5.4
-13 4 -1 17.4 7.3
13 -4 1 15.7 7.1
-13 4 -2 33.1 6.9
13 -4 2 38.7 8.8
-13 4 -3 204.78 18.9
13 -4 3 223.08 21
13 -4 3 254.47 29.9
-13 4 -4 37.2 7.5
13 -4 4 43.3 7.2
13 -4 4 25.7 7.7
13 -4 4 39.7 8.7
-13 4 -5 72.39 10.2
13 -4 5 42.8 7.8
13 -4 5 38.1 9.7
13 -4 5 33.2 8.7
-13 4 -6 142.99 15.8
13 -4 6 117.09 14.6
13 -4 6 117.49 15.8
13 -4 6 138.79 15.3
13 -4 6 131.89 11.4
13 -4 6 130.19 15.3
13 -4 7 5.3 5.7
13 -4 7 7.2 3.9
13 -4 7 7.2 4.3
13 -4 7 7.6 4.6
13 -4 8 3.9 6
13 -4 8 10.5 5.8
13 -4 9 1.8 7.1
13 -4 9 2.7 5.6
13 -4 10 12.4 7
-13 5 10 29.3 10.5
-13 5 10 40.4 10.7
13 -5 -10 28.3 16.1
-13 5 9 -0.8 4.8
-13 5 9 3.2 6.4
13 -5 -9 -6 7.6
13 -5 -8 79.99 17.4
13 -5 -7 27.2 11.1
13 -5 -6 170.98 25.4
-13 5 5 29.1 8
-13 5 5 34.3 7
13 -5 -5 26.9 9.9
-13 5 4 396.76 32.7
-13 5 4 422.46 28.5
13 -5 -4 355.56 35.8
-13 5 3 200.98 21.6
-13 5 3 188.28 16.3
13 -5 -3 173.18 24.4
-13 5 2 60.09 8.8
-13 5 2 69.89 13.3
13 -5 -2 55.09 12.9
-13 5 1 47.4 12.2
-13 5 1 55.49 8.6
13 -5 -1 48.5 12.4
-13 5 0 52.69 8.5
-13 5 0 55.19 12.5
13 -5 0 47.3 11.8
-13 5 -1 30.7 6.9
13 -5 1 43.3 10.1
-13 5 -2 47.7 8.3
13 -5 2 71.09 12.6
-13 5 -3 198.28 17.7
13 -5 3 181.98 21.1
-13 5 -4 394.86 29.9
13 -5 4 386.26 31
13 -5 4 371.06 29.4
-13 5 -5 27.1 7
13 -5 5 37.2 8.6
13 -5 5 25.1 8.7
13 -5 5 32.1 8.5
13 -5 5 29.5 6.3
-13 5 -6 134.69 16.2
13 -5 6 138.39 16.6
13 -5 6 126.29 16
13 -5 6 155.28 14.5
13 -5 6 155.18 18.4
13 -5 6 162.88 13.3
13 -5 7 38.5 9.7
13 -5 7 22.5 6.6
13 -5 7 18.3 6.3
13 -5 7 29.3 7.1
13 -5 8 64.69 12.7
13 -5 8 55.09 10.5
13 -5 9 4.4 7.3
13 -5 10 17.6 10.1
-13 6 10 45.7 11.8
-13 6 10 43.9 13
13 -6 -10 33.2 14.3
-13 6 9 29.3 9.4
13 -6 -9 9 10.8
13 -6 -8 25.9 12.7
13 -6 -7 102.49 20
13 -6 -6 63.29 15.2
-13 6 5 123.09 16.4
-13 6 5 123.69 13.5
13 -6 -5 112.69 20.6
-13 6 4 44.7 7.3
-13 6 4 59.59 12.5
13 -6 -4 52.59 13.8
-13 6 3 128.69 13.5
-13 6 3 119.39 18
13 -6 -3 100.29 18.2
-13 6 2 39.8 7.3
-13 6 2 30.8 10.7
13 -6 -2 35.6 11.5
-13 6 1 7.1 6.9
-13 6 1 -2.7 2.7
13 -6 -1 3.9 5.6
-13 6 0 70.59 10.4
13 -6 0 81.09 14.9
-13 6 -1 -3.5 3
13 -6 1 0.2 4.7
-13 6 -2 35.3 7.2
13 -6 2 16.7 7.3
-13 6 -3 87.09 12.4
13 -6 3 111.29 15.6
13 -6 3 134.99 13.9
-13 6 -4 30.1 7.4
13 -6 4 45.6 9.8
13 -6 4 45.7 8.7
-13 6 -5 135.89 16.3
13 -6 5 143.09 17.1
13 -6 5 136.99 15
-13 6 -6 59.49 10.2
13 -6 6 39.3 8
13 -6 6 51.39 10.6
13 -6 6 47 10.5
13 -6 6 56.69 12.1
13 -6 7 105.19 13.2
13 -6 7 86.89 12.8
13 -6 7 81.79 14.2
13 -6 7 67.49 11.7
13 -6 8 26.1 9.5
13 -6 9 12.1 8
13 -6 10 19.3 9.4
-13 7 9 8.7 6.9
13 -7 -9 29 14.9
13 -7 -8 0 9
13 -7 -7 1.1 8.2
13 -7 -6 18 10.4
-13 7 5 7.2 4.5
-13 7 5 2.6 6.3
13 -7 -5 9.3 8.4
-13 7 4 44.9 11
-13 7 4 52.09 8
13 -7 -4 43.3 13.3
-13 7 3 26.2 10.6
-13 7 3 32.1 7.2
13 -7 -3 44.9 12.3
-13 7 2 138.29 21
-13 7 2 133.29 15.5
13 -7 -2 146.79 22.2
-13 7 1 6.4 4.9
13 -7 -1 9.6 8
-13 7 0 19.4 6.2
13 -7 0 17.3 8.4
-13 7 -1 2 3.7
13 -7 1 9.7 6.4
-13 7 -2 122.29 14.8
13 -7 2 118.09 15.6
13 -7 2 130.29 18.7
-13 7 -3 31.8 7.8
13 -7 3 21.6 6.3
13 -7 3 22.8 7.9
-13 7 -4 47.4 8.9
13 -7 4 29.8 7.7
-13 7 -5 14.7 6.3
13 -7 5 7.2 6.2
13 -7 5 17.8 5.3
-13 7 -6 20.6 7.6
13 -7 6 16.3 7.3
13 -7 6 17.7 7.8
13 -7 6 22.4 6
13 -7 7 -0.3 6.7
13 -7 7 4.4 4.9
13 -7 8 5.7 7.6
13 -7 9 23.4 10.1
13 -8 -9 27.8 13.1
13 -8 -8 5 10.4
13 -8 -7 13.9 10.8
-13 8 6 26.3 6.3
13 -8 -6 3.8 9.9
-13 8 5 64.49 11.9
-13 8 5 68.69 13.5
13 -8 -5 38.1 13.2
-13 8 4 43.5 7.8
-13 8 4 33.1 10.8
13 -8 -4 21.6 12.1
-13 8 3 70.59 14.9
-13 8 3 56.69 9.6
13 -8 -3 29.4 12.1
13 -8 -2 18.9 9.6
-13 8 1 38.3 8.3
13 -8 -1 23.5 10.3
-13 8 0 59.19 10.1
13 -8 0 68.59 15.3
-13 8 -1 41.7 8.4
13 -8 1 26.6 10.2
-13 8 -2 25.4 7
13 -8 2 7.4 6.9
-13 8 -3 73.99 11.4
13 -8 3 41.9 11.2
-13 8 -4 13.7 6.1
13 -8 4 32.1 7.6
-13 8 -5 46.9 10.1
13 -8 5 66.79 11.7
-13 8 -6 18.8 7.1
13 -8 6 17.4 8
13 -8 7 11.8 7.7
13 -8 7 12.6 6.5
13 -8 8 16.9 8.7
13 -8 9 3.6 7.8
13 -9 -8 20.2 13.6
13 -9 -7 14.5 12.1
-13 9 6 9.8 5.4
13 -9 -6 9.2 10.2
-13 9 5 6.3 8
13 -9 -5 -4.7 7.2
-13 9 4 -9.5 5.9
-13 9 4 -2.3 3.8
13 -9 -4 -0.3 7.2
-13 9 3 70.29 17.5
-13 9 3 52.79 9.9
13 -9 -3 53.49 16.2
-13 9 2 68.89 11.1
13 -9 -2 33.5 12.6
-13 9 1 101.69 13.8
13 -9 -1 99.99 18.8
-13 9 0 22.6 6.9
13 -9 0 19.9 9.7
-13 9 -1 103.09 14.5
13 -9 1 95.19 18
-13 9 -2 55.29 10.6
13 -9 2 67.59 14.8
-13 9 -3 55.09 10.5
13 -9 3 77.99 14.8
-13 9 -4 2.5 5
-13 9 -5 12.9 6.6
13 -9 5 8.7 6.2
-13 9 -6 4.7 5.9
13 -9 6 -1.5 6.2
13 -9 7 18.1 8.5
13 -9 8 22.4 10.1
13 -10 -8 0.3 11.7
13 -10 -7 41.9 16.9
13 -10 -6 58.39 18.1
-13 10 5 -2 7.6
13 -10 -5 14.9 11.2
-13 10 4 59.69 9.9
-13 10 4 47.6 14
13 -10 -4 48.3 15.3
-13 10 3 39.6 9
13 -10 -3 40.8 14
-13 10 2 74.79 12.6
13 -10 -2 73.39 18.6
-13 10 1 89.89 13.6
13 -10 -1 73.19 18.7
-13 10 0 42.8 9.3
13 -10 0 59.89 15.3
-13 10 -1 52.19 10.4
13 -10 1 44.3 13.4
-13 10 -2 35.2 8.8
13 -10 2 71.39 15.4
-13 10 -3 32.2 8.3
13 -10 3 26.7 10.5
-13 10 -4 37.1 9.2
-13 10 -5 -1.2 4.6
-13 10 -6 44.4 10.7
13 -10 7 21.2 9.4
13 -10 8 13.3 9.2
13 -11 -7 -5.3 11.5
13 -11 -6 17.1 12.9
13 -11 -5 1.9 10.3
-13 11 4 28 7.7
13 -11 -4 -7.5 8.1
-13 11 3 51.39 10.5
13 -11 -3 34.5 14.7
-13 11 2 14.2 6.7
13 -11 -2 11.1 11.8
-13 11 1 10.6 6
13 -11 -1 8.4 9.4
-13 11 0 8.5 5.8
13 -11 0 -3 6.4
-13 11 -1 19.4 7.2
13 -11 1 0.8 6.5
-13 11 -2 16.4 7
13 -11 2 7.1 7.8
-13 11 -3 39.6 10.1
-13 11 -4 39.1 10.3
-13 11 -5 -0.1 5.3
-13 11 -6 15.9 7.8
13 -12 -5 26.9 16.5
-13 12 4 16.6 7.2
13 -12 -4 16.5 13.5
-13 12 3 46 10.6
13 -12 -3 25.1 14
-13 12 2 7.9 6.1
13 -12 -2 -1.2 8.9
-13 12 1 10 6.9
13 -12 -1 25.1 13.2
-13 12 0 12.5 6.5
13 -12 0 -4.9 6.4
-13 12 -1 0.9 5.4
13 -12 1 11 9.2
-13 12 -2 1 5.6
13 -12 2 26.3 11.4
-13 12 -3 23.8 8.6
-13 12 -4 24.4 8.7
-13 12 -5 19.3 8.7
-13 12 -6 0.8 6.2
13 -13 -4 33.8 15.5
-13 13 3 24.7 8.9
13 -13 -3 29.8 16.3
-13 13 2 7.6 6.4
13 -13 -2 5.3 10.9
-13 13 1 17.3 7.9
13 -13 -1 1.5 10.2
-13 13 0 1.5 5.9
13 -13 0 7.5 9.9
-13 13 -1 7.6 6.3
13 -13 1 8 10.7
-13 13 -2 10.7 7.5
13 -13 2 5.5 9.5
-13 13 -3 35.7 10.6
-13 13 -4 23.4 8.9
-13 14 1 47.4 11.6
13 -14 -1 35.2 14.8
-13 14 0 19.6 8.6
13 -14 0 35.3 16
-13 14 -1 33.6 10.3
13 -14 1 25.6 13.3
-14 -13 3 13.3 10
-14 -13 3 11.6 5.4
14 13 -3 22.6 12.1
14 13 -3 17.1 9.1
-14 -13 2 13.8 5.6
-14 -13 2 10.1 9.9
14 13 -2 1.5 8.8
14 13 -2 1.1 6.9
-14 -13 1 16.4 6.9
-14 -13 1 19.6 12.1
14 13 -1 18.4 10.5
14 13 -1 23.4 9.2
-14 -13 0 7.9 5.5
14 13 0 -1 7.9
14 13 0 2.4 6.5
-14 -13 -1 18.5 7.2
14 13 1 23.1 8.5
14 13 1 10.9 8.9
-14 -13 -2 12.5 6.8
14 13 2 0 5.6
14 13 2 -0.3 8.7
-14 -13 -3 12.4 7.3
14 13 3 11.4 7.1
14 13 3 2.3 8.4
-14 -12 5 8.7 10.3
14 12 -5 10.7 12.2
14 12 -5 -1.5 7.6
-14 -12 4 93.39 19.5
14 12 -4 95.29 18.4
14 12 -4 97.59 16.7
-14 -12 3 -1 4
-14 -12 3 1 7.2
14 12 -3 1.6 7.9
14 12 -3 -1.4 5.7
-14 -12 2 47.5 13.7
-14 -12 2 53.69 10
14 12 -2 34.5 9.6
14 12 -2 24.3 11.2
-14 -12 1 -1.2 8.2
-14 -12 1 21.5 7.3
14 12 -1 -1.3 5
14 12 -1 2.4 7.4
-14 -12 0 9.1 5.7
14 12 0 9.9 6.6
14 12 0 11.9 9.4
-14 -12 -1 3 5.2
14 12 1 1.9 8.2
14 12 1 3.5 5.4
-14 -12 -2 44.6 10.1
14 12 2 29.8 10.9
14 12 2 29.5 9
-14 -12 -3 5.4 6.5
14 12 3 5.3 6.1
14 12 3 4.5 8.2
-14 -12 -4 96.39 14.7
14 12 4 84.49 14.4
14 12 4 94.89 19.6
-14 -12 -5 6.5 7.2
14 12 5 11.7 6.5
-14 -11 6 -1.6 9.7
-14 -11 5 -0.4 9.4
14 11 -5 24.8 9.7
14 11 -5 8.4 9.3
-14 -11 4 11.8 5
-14 -11 4 0.8 7.3
14 11 -4 -1.5 5.9
14 11 -4 5.5 8.5
-14 -11 3 8.4 9
-14 -11 3 4.6 4.3
14 11 -3 2.1 6.3
14 11 -3 12.1 9.2
-14 -11 2 7.2 9.2
-14 -11 2 31.3 7.3
14 11 -2 12.8 7.5
14 11 -2 16.3 9
-14 -11 1 4.6 4.5
-14 -11 1 2.4 7.7
14 11 -1 1.1 5.5
14 11 -1 7.1 7.1
-14 -11 0 14.8 6.2
14 11 0 23.7 7.8
14 11 0 18.7 9.6
-14 -11 -1 1.8 4.7
14 11 1 12.8 9.5
14 11 1 1.8 4.7
-14 -11 -2 15.1 6.4
14 11 2 9.6 8.7
14 11 2 6.9 5.5
-14 -11 -3 8 5.4
14 11 3 9.1 5.8
14 11 3 11.3 8.4
-14 -11 -4 8.4 6.7
14 11 4 17.6 7
14 11 4 7.7 9.4
14 11 4 9.7 8.3
-14 -11 -5 18.3 8.1
14 11 5 16.6 5.9
14 11 5 9.2 7.8
14 11 5 23 10.7
-14 -11 -6 6.3 6.7
14 11 6 10.3 6.8
-14 -10 7 9.6 6.4
-14 -10 6 32.3 13.3
-14 -10 5 7.7 8.8
14 10 -5 8.2 7.8
14 10 -5 24.2 8.9
-14 -10 4 65.09 9.1
-14 -10 4 59.29 14.6
14 10 -4 50.19 13.3
14 10 -4 38.2 10.4
-14 -10 3 20.8 5.6
-14 -10 3 7.1 7.7
14 10 -3 2.1 5.8
14 10 -3 17 9.3
-14 -10 2 238.98 19.3
-14 -10 2 144.39 23.7
14 10 -2 227.28 27.7
14 10 -2 192.18 22.4
-14 -10 1 5.8 7.8
-14 -10 1 3 4
14 10 -1 0.1 5.9
14 10 -1 1.6 5.2
-14 -10 0 112.79 15
-14 -10 0 135.69 22.7
14 10 0 125.69 16.8
14 10 0 151.08 21.9
-14 -10 -1 -3.2 3.7
14 10 1 0 4.6
14 10 1 6.7 7.3
-14 -10 -2 206.28 21.7
14 10 2 206.28 22.6
14 10 2 216.48 28.1
-14 -10 -3 6.6 5.5
14 10 3 9.9 5.8
14 10 3 5.9 7.2
14 10 3 6.8 5.8
-14 -10 -4 51.49 10.8
14 10 4 63.09 11.9
14 10 4 43 13.6
14 10 4 75.89 12.1
-14 -10 -5 12.7 7.3
14 10 5 6.1 5.3
14 10 5 6.3 7.5
14 10 5 -0.4 5.8
-14 -10 -6 22.4 8.3
14 10 6 14.7 7.9
14 10 6 31.9 11.8
14 10 7 6.1 7.2
-14 -9 8 15.9 8.9
-14 -9 7 20.1 9
14 9 -6 -2.5 8
-14 -9 5 36.2 12.2
14 9 -5 41.9 10
14 9 -5 16.2 9.3
-14 -9 4 9.3 7.9
-14 -9 4 16 4.8
14 9 -4 14.6 7.8
14 9 -4 14.8 7.3
-14 -9 3 61.49 8.7
-14 -9 3 26.2 10.6
14 9 -3 65.29 14.2
14 9 -3 52.69 10.9
-14 -9 2 1.8 7.3
-14 -9 2 -1.4 3
14 9 -2 2.7 5
14 9 -2 -1 5.8
-14 -9 1 6.5 7.1
-14 -9 1 11.6 5.3
14 9 -1 13.5 8.7
14 9 -1 23.7 7
-14 -9 0 3.3 7.8
-14 -9 0 0.3 3.8
14 9 0 -6.3 4.5
14 9 0 0.5 4.6
-14 -9 -1 12.3 5.6
14 9 1 15.9 6.4
14 9 1 22.8 10
-14 -9 -2 9.9 5.7
14 9 2 6.6 4.9
14 9 2 0.2 4.5
14 9 2 0.8 5.7
-14 -9 -3 32 8.6
14 9 3 40 11.4
14 9 3 53.99 10
14 9 3 61.39 10.5
-14 -9 -4 6.4 5.5
14 9 4 14.2 8.3
14 9 4 12.7 6
14 9 4 5.4 6
-14 -9 -5 22.6 7.5
14 9 5 32.6 11.2
14 9 5 31.8 9.1
14 9 5 14.1 5.8
-14 -9 -6 2.7 6
14 9 6 5.8 6.4
14 9 6 4.1 6.7
14 9 6 4.4 6.5
14 9 7 33.5 12.6
14 9 7 20.9 8.9
14 9 8 27.5 10.7
-14 -8 9 3.4 7
-14 -8 8 33.5 11.2
-14 -8 7 16.7 7.7
14 8 -6 30.3 10.5
-14 -8 5 28.9 11.7
14 8 -5 12.8 7.9
14 8 -5 0.1 4.9
-14 -8 4 74.99 9
-14 -8 4 42.4 13.4
14 8 -4 70.99 14.5
14 8 -4 81.19 12.4
-14 -8 3 6.4 6.4
-14 -8 3 5.4 3.4
-14 -8 3 5 7.1
14 8 -3 -1 4.4
14 8 -3 -6.7 5.1
-14 -8 2 62.89 13.6
-14 -8 2 47.4 8.1
14 8 -2 36.3 8.8
14 8 -2 47.1 12
-14 -8 1 47.9 12.2
-14 -8 1 37.3 7.4
14 8 -1 21.9 7.1
14 8 -1 37.6 10.2
-14 -8 0 77.49 11.3
-14 -8 0 134.39 20.1
14 8 0 82.69 15.5
14 8 0 89.29 12.4
14 8 0 71.69 10.2
-14 -8 -1 26.7 7.1
14 8 1 29.1 9.2
14 8 1 41.6 7.9
14 8 1 41.3 8.6
-14 -8 -2 39.9 8.6
14 8 2 29.3 7.4
14 8 2 42.8 8.3
14 8 2 43 11.1
-14 -8 -3 2.6 4.5
14 8 3 5.9 4.7
14 8 3 0.2 5.5
14 8 3 2.5 4.9
-14 -8 -4 61.99 10.9
14 8 4 56.39 10.8
14 8 4 72.99 15.2
14 8 4 102.29 13.2
-14 -8 -5 7.9 5.8
14 8 5 5.6 5.6
14 8 5 11 7.8
14 8 5 1.5 6.4
14 8 5 17 6
-14 -8 -6 29.6 8.3
14 8 6 28.8 9.4
14 8 6 29 10.9
14 8 6 30.1 9.2
14 8 7 20.3 8.6
14 8 7 9.9 7.4
14 8 8 15.5 8
-14 -7 9 2.3 7.5
-14 -7 8 -2.5 5.1
-14 -7 7 51.49 11.4
14 7 -6 43.4 11.2
14 7 -5 353.26 27.9
14 7 -5 315.57 30.3
-14 -7 4 50.29 6.9
-14 -7 4 40.6 11.8
14 7 -4 57.59 9.8
14 7 -4 22 8.5
-14 -7 3 179.78 24.3
-14 -7 3 168.28 15.2
-14 -7 3 200.98 21.2
14 7 -3 155.78 21.3
14 7 -3 180.98 19.4
-14 -7 2 36.4 9
-14 -7 2 65.29 9.2
-14 -7 2 57.49 13.4
14 7 -2 43.9 8.8
14 7 -2 43.5 11.3
-14 -7 1 194.38 24
-14 -7 1 182.48 15.9
14 7 -1 194.48 23.7
14 7 -1 147.79 17.1
14 7 -1 144.89 13.7
-14 -7 0 6.7 4.1
-14 -7 0 2.2 6.2
14 7 0 -0.5 4.6
14 7 0 1 3.1
14 7 0 9.2 5
-14 -7 -1 135.49 15.5
14 7 1 159.08 16.8
14 7 1 136.99 19.2
14 7 1 133.09 14.7
-14 -7 -2 38.4 8
14 7 2 63.29 9.9
14 7 2 36.2 7.6
14 7 2 26.9 9.2
-14 -7 -3 179.98 19
14 7 3 163.18 18.5
14 7 3 202.68 23.9
14 7 3 191.58 17.6
-14 -7 -4 67.19 10.6
14 7 4 36.7 8.9
14 7 4 42.9 11.2
14 7 4 35 7.6
-14 -7 -5 369.86 28.9
14 7 5 360.36 32.5
14 7 5 304.97 28.5
14 7 5 313.67 31
14 7 5 375.46 27.2
-14 -7 -6 57.19 10.6
14 7 6 39.1 11.1
14 7 6 47.5 11
14 7 6 34.3 10.1
14 7 6 51.19 8.8
14 7 7 35.3 9.7
14 7 7 64.79 13.7
14 7 7 59.29 12.6
14 7 8 -5.9 6
14 7 8 6.2 7.4
14 7 9 3.7 6.5
-14 -6 9 17.7 9.2
-14 -6 8 8.2 6.6
-14 -6 8 5.2 7.6
-14 -6 7 10.2 7.2
-14 -6 7 19.4 7.4
-14 -6 6 18.6 8
14 6 -6 36.2 10.5
-14 -6 5 2.3 5.8
14 6 -5 11.1 5.9
14 6 -5 8.2 7
-14 -6 4 27.1 8.3
-14 -6 4 27.1 7.8
-14 -6 4 20.8 4.3
-14 -6 4 19.4 9.8
14 6 -4 19.8 8.1
14 6 -4 9.2 5.5
-14 -6 3 4.2 6.2
-14 -6 3 -1.6 4.4
-14 -6 3 -1.4 3.6
-14 -6 3 0.4 2.7
14 6 -3 1.6 4.2
14 6 -3 0.8 5.2
-14 -6 2 6.2 7.2
-14 -6 2 7.6 3.9
-14 -6 2 11.5 7.2
14 6 -2 8.8 3.5
14 6 -2 6 5.7
14 6 -2 5.9 4.5
-14 -6 1 23.9 5.9
-14 -6 1 24 8.7
-14 -6 1 29.7 10.9
14 6 -1 36.7 7.5
14 6 -1 19.7 7.5
-14 -6 0 16.9 7.6
-14 -6 0 23.8 6.4
14 6 0 15.9 6.9
14 6 0 15.2 5.7
14 6 0 20.5 4.9
-14 -6 -1 36.9 7.4
-14 -6 -1 21.4 9.6
14 6 1 29.6 9.1
14 6 1 19.8 5.2
14 6 1 32.2 6.9
-14 -6 -2 2.1 4.5
14 6 2 9.7 4.6
14 6 2 18.7 5.1
14 6 2 5.7 5.6
-14 -6 -3 -0.4 4.5
14 6 3 1.3 3.2
14 6 3 1.1 5
14 6 3 5.2 4.3
-14 -6 -4 13.6 6
14 6 4 12.1 7
14 6 4 21.7 5.7
14 6 4 16 6.4
14 6 4 12.8 6.9
-14 -6 -5 6 5.7
14 6 5 16.8 6.9
14 6 5 12.7 7.1
14 6 5 0.1 4.5
14 6 5 4.2 3.8
-14 -6 -6 40.4 8.9
14 6 6 26.2 8.3
14 6 6 24.1 8.3
14 6 6 20.8 5.4
14 6 6 32.5 9.9
14 6 7 7.8 5.4
14 6 7 4 4.7
14 6 7 4.8 6.3
14 6 7 13.2 7.2
14 6 8 -1.9 5.3
14 6 9 10.7 7.9
-14 -5 10 1.5 6.1
-14 -5 10 5.4 8.1
-14 -5 9 13.3 7.4
-14 -5 9 13.2 7.6
-14 -5 8 22.3 8.1
-14 -5 8 4.8 6.5
-14 -5 7 6.7 6.2
-14 -5 7 7.3 6
14 5 -7 14.3 8.1
-14 -5 6 51.59 10.7
14 5 -6 52.69 12.4
-14 -5 5 23.1 7.5
14 5 -5 35.8 9.5
14 5 -5 45.1 8.3
-14 -5 4 32.7 8.6
-14 -5 4 48.3 6.3
-14 -5 4 40.9 9
14 5 -4 35.6 9.9
14 5 -4 45.7 8.3
-14 -5 3 9.8 5.5
-14 -5 3 23.5 6.9
-14 -5 3 18.9 8.9
-14 -5 3 19.5 4.7
14 5 -3 12.4 5
14 5 -3 14.7 6.9
-14 -5 2 62.19 13.1
-14 -5 2 29.8 6.1
-14 -5 2 30.5 7.3
-14 -5 2 29.7 8.2
14 5 -2 39.5 9.7
14 5 -2 30 6.8
-14 -5 1 39.1 10.4
-14 -5 1 63.39 8.7
-14 -5 1 54.79 8.7
-14 -5 1 88.99 16.1
14 5 -1 22.7 8.2
14 5 -1 55.49 8.9
14 5 -1 55.49 7.4
-14 -5 0 3.5 3.6
-14 -5 0 10.4 6.8
14 5 0 2.9 3.8
14 5 0 5.9 5
14 5 0 0.5 2.5
-14 -5 -1 49.9 11.2
-14 -5 -1 43.6 8.4
14 5 1 40.9 7.1
14 5 1 37.5 9.9
14 5 1 59.99 9
-14 -5 -2 36 8.1
14 5 2 33.9 7
14 5 2 39.1 7.1
14 5 2 41.5 10.3
-14 -5 -3 22.8 6.5
14 5 3 4.4 4.3
14 5 3 21.5 8.3
14 5 3 29.1 10.1
14 5 3 16.7 5.5
-14 -5 -4 38.8 8.7
14 5 4 56.79 8.8
14 5 4 30.2 9.7
14 5 4 41 8.4
14 5 4 50.99 11.2
-14 -5 -5 38.4 8.4
14 5 5 31.7 8.4
14 5 5 42.1 7.3
14 5 5 34.6 9
14 5 5 28.1 9
-14 -5 -6 48.3 9.6
14 5 6 45.9 11.4
14 5 6 41.7 10
14 5 6 39.4 9.5
14 5 6 58.49 7.9
14 5 6 44.7 10.2
14 5 7 2.4 6.5
14 5 7 3.1 4.2
14 5 7 -0.5 4.4
14 5 7 1.2 4.3
14 5 8 6 7.1
14 5 9 12.3 7.5
14 5 10 -5 6.2
-14 -4 10 45.2 11.7
-14 -4 10 38.5 11.5
-14 -4 9 9.3 7.3
-14 -4 9 9.8 8.2
-14 -4 8 3.3 6.4
-14 -4 8 7.2 6.2
-14 -4 7 6.9 6
-14 -4 7 13.4 6.6
14 4 -7 -3.1 5.6
-14 -4 6 140.49 17.8
14 4 -6 151.48 20.8
-14 -4 5 72.79 12.1
14 4 -5 67.79 10.2
14 4 -5 51.39 12
-14 -4 4 162.68 18.2
-14 -4 4 160.98 16.7
-14 -4 4 149.69 12.7
14 4 -4 201.88 23.2
14 4 -4 188.08 16
-14 -4 3 22.9 9.8
-14 -4 3 29.2 7.6
-14 -4 3 44.7 6.6
-14 -4 3 44 10.3
14 4 -3 25.4 8.5
14 4 -3 44 7.7
-14 -4 2 58.89 12.7
-14 -4 2 53.49 9
-14 -4 2 66.79 13.2
-14 -4 2 62.39 8.5
14 4 -2 47.6 8.1
14 4 -2 56.69 11.7
-14 -4 1 87.19 11.1
-14 -4 1 102.39 17
-14 -4 1 82.39 10.5
-14 -4 1 96.09 15.2
14 4 -1 61.79 12.3
14 4 -1 83.69 10.8
-14 -4 0 38.1 10
-14 -4 0 53.89 13
-14 -4 0 42.9 7.9
-14 -4 0 33.3 6.8
14 4 0 36.1 6.4
14 4 0 51.99 11.2
14 4 0 31.7 6.9
-14 -4 -1 72.29 12.1
-14 -4 -1 73.79 9.3
-14 -4 -1 77.89 10.4
14 4 1 71.49 9.2
14 4 1 64.19 9.3
14 4 1 59.49 12.1
-14 -4 -2 41.8 8.4
-14 -4 -2 46.9 10.7
14 4 2 71.59 9.6
14 4 2 56.99 12.4
14 4 2 58.29 9
14 4 2 51.79 11.1
-14 -4 -3 28.2 7
14 4 3 27.3 8.3
14 4 3 38.5 7.6
14 4 3 33.9 6.9
14 4 3 34.1 9.1
-14 -4 -4 137.89 16.5
14 4 4 175.58 21.6
14 4 4 152.08 16
14 4 4 177.88 19.8
14 4 4 176.48 16.4
-14 -4 -5 56.59 10.1
14 4 5 60.09 11.5
14 4 5 78.39 14
14 4 5 61.69 10.5
14 4 5 62.79 11.8
14 4 5 49 8.1
-14 -4 -6 159.48 17.5
14 4 6 150.68 16.9
14 4 6 113.49 16.8
14 4 6 151.18 20.3
14 4 6 156.48 17.4
14 4 6 170.78 13.7
14 4 7 3.8 5.5
14 4 7 2.2 4.5
14 4 7 3.3 4
14 4 7 0.9 5.4
14 4 8 2 5
14 4 9 28.7 9.7
14 4 10 22.6 9.4
-14 -3 10 4.3 6.6
-14 -3 10 13.7 8.1
-14 -3 9 40.5 10.6
-14 -3 9 34.5 9.9
-14 -3 8 22.8 8.3
-14 -3 8 20.2 8.3
-14 -3 7 95.49 14.3
-14 -3 7 76.49 13.8
14 3 -7 110.89 17.6
-14 -3 6 68.29 11.8
14 3 -6 42.8 11.6
-14 -3 5 404.16 33.6
14 3 -5 463.05 37
-14 -3 4 20.3 6.2
-14 -3 4 18.5 3.7
-14 -3 4 13.5 5.9
14 3 -4 13.2 6.8
-14 -3 3 258.17 21.2
-14 -3 3 311.37 26.5
-14 -3 3 344.77 25.2
14 3 -3 285.07 27.1
-14 -3 2 10.3 6.2
-14 -3 2 14.8 8.1
-14 -3 2 8 4.5
-14 -3 2 20.6 4.8
14 3 -2 5.7 4
14 3 -2 12.6 6.5
-14 -3 1 44.7 7.2
-14 -3 1 52.89 10.9
-14 -3 1 39.5 7.3
-14 -3 1 37.2 11.2
14 3 -1 36.2 7.4
14 3 -1 34.2 8.9
-14 -3 0 0.5 4.4
-14 -3 0 -1.3 4.8
-14 -3 0 0.3 3.3
-14 -3 0 0.7 2.9
14 3 0 0.7 4.8
14 3 0 -0.3 2.9
14 3 0 -0.1 3.6
-14 -3 -1 30.1 5.7
-14 -3 -1 19.5 7
-14 -3 -1 39 10.8
-14 -3 -1 13.7 5.3
14 3 1 28.4 6.1
14 3 1 16.2 7
14 3 1 33 6
14 3 1 31.9 9.6
-14 -3 -2 13.3 6.3
-14 -3 -2 11.7 3.8
-14 -3 -2 8 5
14 3 2 2.3 3.6
14 3 2 8.6 4.9
14 3 2 7.7 4.9
14 3 2 10.5 3.8
-14 -3 -3 244.88 20.7
-14 -3 -3 229.78 21.4
14 3 3 253.67 24.4
14 3 3 246.48 20.5
14 3 3 246.58 20
14 3 3 229.68 22.7
-14 -3 -4 18.3 6
14 3 4 14.9 5.3
14 3 4 16.5 6.7
14 3 4 6.3 6
14 3 4 9.6 5.4
14 3 4 18 5.1
-14 -3 -5 391.76 30
14 3 5 392.06 33
14 3 5 382.76 28.2
14 3 5 383.16 32.4
14 3 5 391.76 32.3
14 3 5 372.86 30.7
-14 -3 -6 49.99 9.6
14 3 6 43.4 9.3
14 3 6 42.7 9.1
14 3 6 49.1 10.6
14 3 6 50.49 10.3
14 3 6 56.79 7.4
14 3 7 73.09 10.8
14 3 7 77.49 13.5
14 3 7 77.79 11.7
14 3 8 21.9 8.2
14 3 9 34.3 11.1
14 3 10 22.2 9.7
-14 -2 10 3.1 5.7
-14 -2 9 1.7 5.8
-14 -2 9 6.2 6.6
-14 -2 8 43.5 10.8
-14 -2 8 39.9 9.6
14 2 -8 19 9.4
-14 -2 7 24.3 7.2
-14 -2 7 23.3 8.4
14 2 -7 28.1 10
-14 -2 6 73.49 10.7
-14 -2 6 34.2 9.7
14 2 -6 76.09 14
-14 -2 5 19 4.5
-14 -2 5 20.5 7.2
14 2 -5 15.4 7.6
-14 -2 4 81.49 11.8
-14 -2 4 69.69 11.3
-14 -2 4 86.69 8.3
14 2 -4 63.89 13.5
-14 -2 3 43.4 9.6
-14 -2 3 42.8 6.4
-14 -2 3 36.6 8.3
14 2 -3 39.8 10
-14 -2 2 291.77 21.9
-14 -2 2 232.48 23.9
-14 -2 2 231.78 19.6
14 2 -2 322.37 35.9
14 2 -2 241.48 23.8
-14 -2 1 8.7 4.1
-14 -2 1 7.7 6.6
-14 -2 1 12.7 6.2
-14 -2 1 2.5 3.3
14 2 -1 9 6.7
14 2 -1 4.7 7.5
14 2 -1 8.7 5.6
-14 -2 0 38.1 9.3
-14 -2 0 36.9 11.3
-14 -2 0 27.3 6.4
14 2 0 21.5 6.9
14 2 0 39 9.5
14 2 0 40.1 16.3
14 2 0 30.2 6.3
-14 -2 -1 10.4 7.8
-14 -2 -1 18.9 7.1
-14 -2 -1 19.7 5.8
-14 -2 -1 12 4
14 2 1 -2.1 4.6
14 2 1 5.1 3.4
14 2 1 9.7 5.9
14 2 1 14.9 6.2
-14 -2 -2 168.68 16.8
-14 -2 -2 198.58 18.4
-14 -2 -2 185.18 15.1
14 2 2 208.58 17.1
14 2 2 208.18 21.4
14 2 2 165.58 20.6
14 2 2 206.78 17
14 2 2 211.58 24.6
-14 -2 -3 43.8 8.2
-14 -2 -3 32.2 8.2
-14 -2 -3 37 5.4
14 2 3 46.1 8
14 2 3 48.2 7.5
14 2 3 55.29 11.9
14 2 3 31.4 8.1
14 2 3 38.6 8.8
-14 -2 -4 81.79 11.9
-14 -2 -4 64.39 10
14 2 4 70.19 12.2
14 2 4 75.19 10.5
14 2 4 65.29 12.1
14 2 4 65.19 8.9
14 2 4 65.39 12
-14 -2 -5 10.8 5.3
14 2 5 22.1 7.2
14 2 5 28 5.5
14 2 5 13.1 5.2
14 2 5 15.1 6.1
14 2 5 14.9 6.3
-14 -2 -6 37.7 8
14 2 6 35.2 8.7
14 2 6 44.7 9.3
14 2 6 53.49 10.6
14 2 6 51.69 6.8
14 2 6 33.2 8.6
14 2 7 24.2 8
14 2 7 26.7 6.4
14 2 7 16.1 5.3
14 2 8 24 8
14 2 9 23 8.3
14 2 10 6.8 6.7
-14 -1 11 43.4 12.1
-14 -1 10 3.3 6.3
-14 -1 9 31 9.4
-14 -1 8 1.4 5
-14 -1 8 1.6 6
14 1 -8 0.5 6.7
-14 -1 7 30.5 9
-14 -1 7 39.5 8.4
14 1 -7 32.8 10.9
-14 -1 6 12.5 6.8
-14 -1 6 11.1 4.7
14 1 -6 12.3 7.9
-14 -1 5 32 8.4
14 1 -5 65.59 14
-14 -1 4 7.3 5.2
-14 -1 4 10.5 3.1
-14 -1 4 23.7 6.8
14 1 -4 13.7 8.1
-14 -1 3 34.8 7.5
-14 -1 3 47.2 10
-14 -1 3 34.7 5.7
14 1 -3 25.6 8.8
-14 -1 2 215.78 17.8
-14 -1 2 225.38 22.3
-14 -1 2 229.38 19.4
14 1 -2 228.68 22.6
14 1 -2 231.38 27.5
-14 -1 1 437.86 35.7
-14 -1 1 538.85 41.5
-14 -1 1 460.35 35.5
14 1 -1 565.74 42.2
14 1 -1 585.24 41.4
14 1 -1 502.85 41.3
-14 -1 0 49.4 7.7
-14 -1 0 41.9 7.3
-14 -1 0 47.9 10
-14 -1 0 41.1 10.6
14 1 0 27.6 8.1
14 1 0 55.19 15.6
14 1 0 57.49 13.6
-14 -1 -1 327.97 32.9
-14 -1 -1 401.46 31.2
-14 -1 -1 396.56 28.2
-14 -1 -1 394.06 29.1
14 1 1 415.86 33.6
14 1 1 415.26 32.5
-14 -1 -2 137.19 12
-14 -1 -2 162.88 26.3
-14 -1 -2 146.69 16.2
-14 -1 -2 146.69 15
14 1 2 134.79 17.5
14 1 2 148.09 13.1
14 1 2 140.69 13
14 1 2 102.99 15
14 1 2 137.69 19.4
-14 -1 -3 35.1 7
-14 -1 -3 35 8
-14 -1 -3 30.5 5
14 1 3 35.5 8.3
14 1 3 36.6 6.9
14 1 3 26.4 5.9
14 1 3 16.3 7.5
14 1 3 28 8.7
-14 -1 -4 19.5 6.2
-14 -1 -4 22.5 6.6
14 1 4 10.2 5.8
14 1 4 18.8 5.3
14 1 4 12.4 6.7
14 1 4 16.6 4.5
14 1 4 7.4 5
-14 -1 -5 30.9 7.5
14 1 5 55.29 11.3
14 1 5 47 8.7
14 1 5 37.1 9.1
14 1 5 54.49 7.4
14 1 5 70.79 11.4
-14 -1 -6 12.3 6
14 1 6 19.3 6.9
14 1 6 4.3 4.7
14 1 6 8.1 5.1
14 1 6 8.6 5
14 1 6 4.7 3
14 1 7 30.6 6.5
14 1 7 31.1 7
14 1 7 37.6 8.8
14 1 8 3.1 4.5
14 1 9 33.1 10
14 1 10 0.7 5.7
14 1 11 46.4 13.1
-14 0 11 17.9 8.4
-14 0 10 62.09 13.6
-14 0 9 -7.7 5.2
-14 0 8 181.78 22.8
14 0 -8 204.48 25.8
-14 0 7 48.4 10.9
14 0 -7 48.3 12.3
-14 0 6 269.67 24
-14 0 6 248.78 21
14 0 -6 254.97 29
-14 0 5 7 5.4
14 0 -5 -2.3 4.2
-14 0 4 422.66 33.4
-14 0 4 437.96 34.1
-14 0 4 455.85 29.8
14 0 -4 497.85 38.7
-14 0 3 173.28 13.8
-14 0 3 162.78 17.5
-14 0 3 162.78 17.4
14 0 -3 137.09 20.4
-14 0 2 1312.47 83.69
-14 0 2 1278.77 85.09
-14 0 2 1283.77 88.79
14 0 -2 1207.28 96.59
14 0 -2 1382.56 90.69
-14 0 1 266.17 25.5
-14 0 1 329.07 30.6
-14 0 1 375.06 26.3
14 0 -1 478.25 39.2
14 0 -1 401.56 31.9
-14 0 0 686.93 47.9
-14 0 0 683.63 47.7
-14 0 0 774.72 53.99
14 0 0 695.43 54.39
14 0 0 666.73 51.79
-14 0 -1 210.88 23.6
-14 0 -1 230.28 19
-14 0 -1 225.98 18.4
14 0 1 252.77 24.1
14 0 1 245.58 22.7
-14 0 -2 815.22 54.09
-14 0 -2 711.53 58.09
-14 0 -2 815.52 55.09
-14 0 -2 832.72 52.59
14 0 2 851.91 57.49
14 0 2 770.32 58.29
14 0 2 773.52 58.29
-14 0 -3 112.19 13.7
-14 0 -3 123.09 10.4
-14 0 -3 107.19 12.7
14 0 3 102.89 15.6
14 0 3 91.89 14.8
14 0 3 113.69 15.4
14 0 3 135.39 11.8
14 0 3 125.69 13.5
-14 0 -4 391.16 29.7
-14 0 -4 452.45 31.9
14 0 4 382.36 28.5
14 0 4 399.66 29.8
14 0 4 400.46 33.4
14 0 4 391.46 31.6
14 0 4 346.77 32.3
-14 0 -5 -1.2 4
14 0 5 -1 3.1
14 0 5 1.6 2.6
14 0 5 -2.7 3.3
14 0 5 5.2 5
14 0 5 -0.8 3.8
-14 0 -6 239.08 21.2
14 0 6 229.38 22.1
14 0 6 250.97 22.5
14 0 6 247.08 21.9
14 0 6 259.97 18.6
14 0 7 38.1 7.6
14 0 7 54.99 8.6
14 0 7 71.99 11.7
14 0 8 199.48 22.9
14 0 9 8.6 6.5
14 0 10 84.59 15.3
14 0 11 20.7 9.3
-14 1 11 35.5 11.4
-14 1 10 -5 6.3
-14 1 9 18.4 9.1
14 -1 -9 52.79 16.5
-14 1 8 8.9 6.8
14 -1 -8 0.3 7.1
-14 1 7 33.6 9.7
14 -1 -7 24.1 9.2
-14 1 6 9.3 6.8
14 -1 -6 12.5 7.9
-14 1 5 53.99 7.2
-14 1 5 30.5 8.5
-14 1 5 46.8 7.1
14 -1 -5 46.3 12.2
-14 1 4 13 3.4
-14 1 4 11.3 5.6
-14 1 4 20 6.2
14 -1 -4 24.8 9
-14 1 3 28.2 5.5
-14 1 3 51.59 10.3
-14 1 3 42.6 8.1
14 -1 -3 37.1 10.4
-14 1 2 171.18 19.9
-14 1 2 203.98 16
14 -1 -2 139.29 26.5
14 -1 -2 237.58 21.9
-14 1 1 619.24 41.3
-14 1 1 560.24 45.5
14 -1 -1 602.54 46.2
-14 1 0 44.4 11.6
-14 1 0 37.7 7.3
14 -1 0 46.7 11.6
14 -1 0 57.09 11.9
-14 1 -1 424.36 29.4
-14 1 -1 357.56 33.3
14 -1 1 406.16 32.9
14 -1 1 386.86 33.9
-14 1 -2 95.39 16.8
-14 1 -2 170.58 14.1
14 -1 2 141.19 20.7
14 -1 2 139.39 17.8
14 -1 2 135.09 18.3
-14 1 -3 21.5 5.7
14 -1 3 23.6 7.8
14 -1 3 35.5 6.8
14 -1 3 32.1 8.8
14 -1 3 48.8 9.4
-14 1 -4 16.3 5.7
14 -1 4 12.4 6.6
14 -1 4 13.4 6.1
14 -1 4 13.1 4.5
14 -1 4 5.9 5.4
14 -1 4 17.4 5
-14 1 -5 40.6 7.7
14 -1 5 69.59 11.3
14 -1 5 57.59 11.5
14 -1 5 43.5 6.6
14 -1 5 35.7 7.8
14 -1 5 32.9 9
-14 1 -6 13.9 6.1
14 -1 6 10.3 5.4
14 -1 6 9.5 4.8
14 -1 6 12.7 3.7
14 -1 6 12.6 5.7
14 -1 7 36.9 8.6
14 -1 7 30.1 6.8
14 -1 7 30.3 6.6
14 -1 9 19.2 7.5
14 -1 10 35.6 9.9
14 -1 11 39.1 11.3
-14 2 10 6 7.3
-14 2 9 3.8 6.5
14 -2 -9 6 8.5
-14 2 8 37.8 9.7
14 -2 -8 28.2 11.3
-14 2 7 24 8.5
14 -2 -7 14.1 8.3
-14 2 6 64.29 11.7
14 -2 -6 62.19 14.3
-14 2 5 17.8 5.1
-14 2 5 21.6 6.7
14 -2 -5 12.6 8.3
-14 2 4 84.19 8.6
-14 2 4 83.99 12.1
14 -2 -4 74.49 14.6
-14 2 3 34 6.2
-14 2 3 45.9 9.5
14 -2 -3 67.29 13.5
-14 2 2 242.28 24.2
-14 2 2 235.98 19.1
14 -2 -2 248.68 24.4
-14 2 1 10.9 7.3
-14 2 1 16.4 4.9
14 -2 -1 13.5 6.9
14 -2 -1 19.2 8.5
-14 2 0 26.6 6.2
-14 2 0 33.2 9.9
14 -2 0 16.9 9.5
14 -2 0 27 8.3
-14 2 -1 14.6 4.8
-14 2 -1 4.4 6.2
14 -2 1 12 5.9
14 -2 1 -3.6 4.2
-14 2 -2 186.88 16.5
14 -2 2 197.88 22.3
14 -2 2 179.58 21.8
-14 2 -3 35.1 7.2
14 -2 3 49.2 10.3
14 -2 3 29 7.9
14 -2 3 28.7 8.3
14 -2 4 66.89 8.9
14 -2 4 56.19 11.1
14 -2 4 64.79 12.3
14 -2 4 66.09 11
14 -2 4 63.19 9.4
-14 2 -5 19.2 6.2
14 -2 5 22.3 6.7
14 -2 5 12.2 5.8
14 -2 5 21.5 5.1
14 -2 5 31.2 6.7
14 -2 5 9.9 5.8
-14 2 -6 48.6 8.7
14 -2 6 54.69 7
14 -2 6 53.59 10.3
14 -2 6 34.3 8.4
14 -2 6 61.39 9.7
14 -2 7 23.4 6.2
14 -2 7 20.1 6.8
14 -2 7 23.6 6.3
14 -2 8 46.1 9.9
14 -2 9 7.1 6.2
14 -2 10 8.6 6.4
-14 3 10 2.1 6.1
-14 3 9 28.4 9.5
14 -3 -9 35 13.8
-14 3 8 35 10
14 -3 -8 18.7 9.6
-14 3 7 87.99 15.1
14 -3 -7 114.39 19.9
14 -3 -6 52.29 12.9
-14 3 5 374.36 28.4
14 -3 -5 406.76 35.3
-14 3 4 17.2 4.2
-14 3 4 18.3 7.4
14 -3 -4 21.3 8.5
-14 3 3 240.78 24.2
-14 3 3 257.47 20
14 -3 -3 289.07 26.8
-14 3 2 3.9 6.5
-14 3 2 12 4.5
14 -3 -2 14.7 8.1
-14 3 1 28.5 6.3
-14 3 1 27.8 10.3
14 -3 -1 42.2 10.4
-14 3 0 -1.2 3
-14 3 0 -2.9 5.1
14 -3 0 1.9 4.1
-14 3 -1 22.6 5.9
-14 3 -1 36 10.6
14 -3 1 25.4 8
-14 3 -2 6.9 4.1
14 -3 2 8.4 5.8
-14 3 -3 275.67 22.2
14 -3 3 261.57 24.1
-14 3 -4 17.4 5.6
14 -3 4 15.1 7.6
14 -3 4 21.9 6.9
14 -3 4 21.6 7.4
14 -3 4 13.5 4.8
-14 3 -5 438.46 31.2
14 -3 5 408.76 33.2
14 -3 5 384.36 33
14 -3 5 382.66 28.6
14 -3 5 375.76 29.9
-14 3 -6 50.49 9.3
14 -3 6 43.1 9.1
14 -3 6 66.99 10.1
14 -3 6 52.79 7
14 -3 6 41.5 9.4
14 -3 7 80.19 11.3
14 -3 7 76.39 12.2
14 -3 7 77.99 11.6
14 -3 8 27.2 7.7
14 -3 9 29.4 9.4
14 -3 10 12.3 7.1
-14 4 10 28.9 10.3
-14 4 9 -3.6 6.4
14 -4 -9 5.4 9.6
-14 4 8 -2.4 6.4
14 -4 -8 6 8.5
14 -4 -7 -4.5 7.1
14 -4 -6 140.29 22.9
-14 4 5 65.09 10.8
14 -4 -5 89.49 17.8
-14 4 4 183.28 14.2
-14 4 4 150.28 18.3
14 -4 -4 186.18 24.7
-14 4 3 47.7 10.8
-14 4 3 44.6 7.3
14 -4 -3 54.29 12.8
-14 4 2 64.79 9.1
-14 4 2 89.69 14.8
14 -4 -2 38.8 11.6
-14 4 1 64.09 12.4
-14 4 1 92.79 11.1
14 -4 -1 69.19 14.1
-14 4 0 30.8 6.3
-14 4 0 24.6 9.1
14 -4 0 54.79 11.4
-14 4 -1 89.59 11.1
14 -4 1 73.69 13.8
-14 4 -2 48.3 8.2
14 -4 2 61.79 12
-14 4 -3 50.19 8.7
14 -4 3 42.4 9.6
-14 4 -4 150.68 16.4
14 -4 4 116.99 17.5
14 -4 4 181.58 15.1
14 -4 4 195.48 20.4
-14 4 -5 58.89 9.7
14 -4 5 55.19 12.2
14 -4 5 47 10.5
14 -4 5 70.09 9.8
-14 4 -6 171.18 18
14 -4 6 153.98 13.4
14 -4 6 154.38 17
14 -4 6 157.68 17.4
14 -4 6 148.09 17.1
14 -4 7 4.5 4.2
14 -4 7 1.4 4.1
14 -4 7 1 3.4
14 -4 8 -0.8 3.9
14 -4 9 21.1 8
14 -4 10 40.4 10.6
-14 5 10 -3.5 6.9
14 -5 -10 -1.1 8.9
-14 5 9 11.9 8.3
14 -5 -9 17.6 11.4
14 -5 -8 6.8 10.2
14 -5 -7 3.6 9.2
14 -5 -6 62.59 15.5
-14 5 5 33.1 8.5
-14 5 4 57.39 7.8
-14 5 4 61.49 12.6
14 -5 -4 62.99 15.1
-14 5 3 14.7 5.2
-14 5 3 17.3 8
14 -5 -3 16.3 9.1
-14 5 2 33.6 7
-14 5 2 41.5 11.1
14 -5 -2 59.19 14
-14 5 1 69.39 10.1
-14 5 1 56.49 12.7
14 -5 -1 49.4 12.5
-14 5 0 1.7 3.4
14 -5 0 15.6 7.9
-14 5 -1 29.9 7.1
14 -5 1 54.49 11.8
-14 5 -2 56.49 9.2
14 -5 2 18 7.3
-14 5 -3 13.2 5.4
14 -5 3 20.4 7.6
-14 5 -4 55.79 9.8
14 -5 4 49.7 10.2
-14 5 -5 54.39 9.7
14 -5 5 23.5 8.7
14 -5 5 35.9 7.3
-14 5 -6 31 8.3
14 -5 6 53.69 7.6
14 -5 6 41.3 10.1
14 -5 6 72.69 10.4
14 -5 6 57.99 11.2
14 -5 7 6.7 5.1
14 -5 7 6.1 4.3
14 -5 7 7.3 6.5
14 -5 7 6.3 4.7
14 -5 8 11.1 6.3
14 -5 8 11.9 7.9
14 -5 9 11 9.3
14 -6 -9 0.6 10.4
14 -6 -8 3.9 8.6
14 -6 -7 4 8.9
14 -6 -6 42.9 14
-14 6 5 3.2 3.7
-14 6 5 1.9 5.7
14 -6 -5 3.9 9
-14 6 4 26.8 6
-14 6 4 20.8 8.9
14 -6 -4 22 10.2
-14 6 3 -1.8 6.1
-14 6 3 -0.1 3.3
14 -6 -3 0.1 6.3
-14 6 2 22.5 6
-14 6 2 16.3 8.9
14 -6 -2 4.3 7.1
-14 6 1 33.5 11.7
-14 6 1 22.2 6.3
14 -6 -1 43.3 12.1
-14 6 0 32.5 7.2
14 -6 0 13.6 7.7
-14 6 -1 28.5 7
14 -6 1 20.6 8.1
-14 6 -2 12.9 5.4
14 -6 2 0.9 5.5
-14 6 -3 2.3 4.2
14 -6 3 -2.6 4.3
-14 6 -4 25.3 7
14 -6 4 13 6.7
-14 6 -5 7.7 5.7
14 -6 5 -2 4.8
14 -6 5 2.2 3.2
-14 6 -6 39.2 8.5
14 -6 6 29.7 8.8
14 -6 6 21.5 6.2
14 -6 6 29 9.1
14 -6 7 -1.1 6.4
14 -6 7 14 6.1
14 -6 7 8 5.5
14 -6 7 3.6 4.8
14 -6 8 -6.7 5.6
14 -6 9 17.5 9.2
14 -7 -9 4.2 11.6
14 -7 -8 5.4 9.3
14 -7 -7 47.7 15.1
-14 7 6 47.8 7.9
14 -7 -6 45.8 13.9
-14 7 5 340.97 28.8
-14 7 5 356.56 30.3
14 -7 -5 314.37 38.1
-14 7 4 35 11.3
-14 7 4 55.29 8.5
14 -7 -4 63.79 16.1
-14 7 3 212.88 24.4
-14 7 3 194.48 18
14 -7 -3 194.18 27.6
-14 7 2 44.1 12.8
-14 7 2 50.59 9.2
14 -7 -2 51.89 13.2
-14 7 1 203.48 19.7
14 -7 -1 139.79 21.9
-14 7 0 -4.3 3.3
14 -7 0 2.3 6.3
-14 7 -1 201.48 18.4
14 -7 1 156.38 22.9
-14 7 -2 59.69 10.4
14 -7 2 37.6 10.9
-14 7 -3 163.48 18.4
14 -7 3 187.98 22.9
-14 7 -4 51.49 10.3
14 -7 4 54.09 10
-14 7 -5 366.06 29.1
14 -7 5 393.76 29.4
14 -7 5 298.77 26
-14 7 -6 42.4 9.5
14 -7 6 43.8 8.3
14 -7 6 30.5 9.6
14 -7 6 54.69 11.1
14 -7 7 43.5 9.9
14 -7 7 72.19 13.8
14 -7 8 4.9 7.2
14 -7 9 -1.9 7.5
14 -8 -9 6 11.6
14 -8 -8 52.59 17.1
14 -8 -7 17.4 11.7
-14 8 6 39.3 8
14 -8 -6 35.8 14.4
-14 8 5 13.1 6
-14 8 5 7.1 7.6
14 -8 -5 14.9 11.4
-14 8 4 95.49 11.8
-14 8 4 74.39 16.2
14 -8 -4 74.89 17.5
-14 8 3 4.3 4.6
-14 8 3 -6.5 7
14 -8 -3 12.4 9.8
-14 8 2 43.6 8.9
14 -8 -2 51.19 13.6
-14 8 1 50.99 9.6
14 -8 -1 21.7 9.7
-14 8 0 108.39 14.1
14 -8 0 76.39 16.3
-14 8 -1 29.9 8.1
14 -8 1 48.3 12.9
-14 8 -2 26.2 7.2
14 -8 2 49.4 11.5
-14 8 -3 12.1 5.9
14 -8 3 -4.9 5
-14 8 -4 80.89 13.3
14 -8 4 75.59 12.6
-14 8 -5 15.5 6.8
14 -8 5 13.4 6.5
-14 8 -6 47.4 9.8
14 -8 6 48.8 11.3
14 -8 7 26.3 9.7
14 -8 8 19.6 9.1
14 -8 9 -0.4 8.3
14 -9 -8 9.6 12.2
14 -9 -7 14.3 11.4
14 -9 -6 3 10.3
-14 9 5 26.8 11.3
14 -9 -5 15.8 11.6
-14 9 4 10.9 5.2
-14 9 4 3.3 8.4
14 -9 -4 3 7.4
-14 9 3 69.59 10.9
14 -9 -3 49 15.6
-14 9 2 -2 3.4
14 -9 -2 8 9.1
-14 9 1 15.9 6.6
14 -9 -1 19.4 10.6
-14 9 0 2.8 4.4
14 -9 0 0.9 7.1
-14 9 -1 23.5 7.3
14 -9 1 7.6 8.4
-14 9 -2 4.3 5.2
14 -9 2 -1.8 6.1
-14 9 -3 54.89 10.6
14 -9 3 32 10.1
-14 9 -4 20.3 7.4
-14 9 -5 23.8 8.2
-14 9 -6 2.3 5.8
14 -9 6 1.5 6.4
14 -9 7 25.9 10.5
14 -9 8 26.6 10.7
14 -10 -7 2.6 10.1
14 -10 -6 6.9 10.9
14 -10 -5 4.7 10.1
-14 10 4 72.49 11.3
-14 10 4 57.49 14.6
14 -10 -4 26 12.1
-14 10 3 18.4 6.9
14 -10 -3 24.4 12.7
-14 10 2 252.67 21.7
14 -10 -2 145.69 25.3
-14 10 1 2.1 4.5
14 -10 -1 5.5 8.7
-14 10 0 162.88 19.6
14 -10 0 141.89 24.2
-14 10 -1 3.4 5.3
14 -10 1 4.1 6.9
-14 10 -2 199.08 22.5
14 -10 2 199.08 26.4
-14 10 -3 2.8 5.6
-14 10 -4 41.3 10
-14 10 -5 8.3 6.4
-14 10 -6 25.5 8.9
14 -10 7 10.6 11.6
14 -11 -6 -9.8 10.8
14 -11 -5 9.8 12.3
-14 11 4 6.4 5.9
14 -11 -4 1.8 10.6
-14 11 3 5.7 5.7
14 -11 -3 17.6 11.8
-14 11 2 7.7 6.4
14 -11 -2 18.3 11.6
-14 11 1 6.1 5.5
14 -11 -1 -8.9 7
-14 11 0 30.5 8.6
14 -11 0 28.6 12
-14 11 -1 11.2 6.6
14 -11 1 -8.7 6.8
-14 11 -2 24.8 8.1
14 -11 2 2 8.2
-14 11 -3 6 6
-14 11 -4 5.3 6.7
-14 11 -5 7.8 7
-14 11 -6 20.2 8.3
14 -12 -5 11 13
-14 12 4 126.59 18.9
14 -12 -4 89.09 21.5
-14 12 3 3.2 6
14 -12 -3 12.3 11.3
-14 12 2 36.5 10
14 -12 -2 37 15.6
-14 12 1 6.7 6.2
14 -12 -1 9.6 11.6
-14 12 0 11.8 6.6
14 -12 0 9.5 10.8
-14 12 -1 7.6 5.8
14 -12 1 18.8 11.5
-14 12 -2 39.4 10.1
14 -12 2 19.1 10.8
-14 12 -3 -1.7 5.3
-14 12 -4 158.48 22.1
-14 12 -5 1.5 6.1
-14 13 3 16.8 8.4
14 -13 -3 34.1 16.1
-14 13 2 1.7 6.1
14 -13 -2 11.4 13.7
-14 13 1 22.3 8.7
14 -13 -1 12.6 12.5
-14 13 0 -2.6 5.4
14 -13 0 0.2 7.7
-14 13 -1 24.6 9.3
14 -13 1 14.3 10.5
-14 13 -2 5.4 6.1
14 -13 2 -3.2 10.8
-14 13 -3 18.4 8.9
-15 -13 2 19.4 7.2
-15 -13 2 19.4 12.3
15 13 -2 25.8 10.5
15 13 -2 31.8 12.5
-15 -13 1 33.6 9
-15 -13 1 19.5 11.9
15 13 -1 22 12.2
15 13 -1 9.1 8.1
-15 -13 0 26.5 13.3
-15 -13 0 31.5 8.8
15 13 0 27.7 11.7
15 13 0 21.5 8.7
-15 -13 -1 22.1 8
15 13 1 29.1 9.7
15 13 1 16.2 10.9
-15 -13 -2 7.1 6.6
15 13 2 22.7 8.6
15 13 2 37.3 14.2
-15 -12 4 -2.9 8.9
15 12 -4 -4.9 7.1
15 12 -4 0.2 7.1
-15 -12 3 9.2 5.4
-15 -12 3 17.3 10.5
15 12 -3 19 9.1
15 12 -3 21 10.4
-15 -12 2 1 4.7
-15 -12 2 -4.4 8.9
15 12 -2 2.2 6.8
15 12 -2 13.1 9.8
-15 -12 1 -3.3 4
-15 -12 1 1.2 9.7
15 12 -1 -0.8 5.4
15 12 -1 4.1 8.5
-15 -12 0 -1.2 4.2
-15 -12 0 0.5 9.5
15 12 0 2.5 7.3
15 12 0 -0.2 5.8
-15 -12 -1 -3.1 4.6
15 12 1 5.5 5.4
15 12 1 5 7.9
-15 -12 -2 -6.7 4.8
15 12 2 -5.2 6.1
15 12 2 1.9 5.8
-15 -12 -3 5.2 6.4
15 12 3 22 10.5
15 12 3 24.3 8.7
-15 -12 -4 -3.7 5.1
15 12 4 -1.5 6.9
15 12 4 1.1 5.6
-15 -11 6 91.49 21.1
-15 -11 5 20.8 12.7
15 11 -5 12.7 9.5
15 11 -5 3.5 7.9
-15 -11 4 5.1 8.3
15 11 -4 15.8 8.7
15 11 -4 9.6 7.7
-15 -11 3 31.2 7
-15 -11 3 22.3 10.7
15 11 -3 16.7 10.2
15 11 -3 19.4 8.4
-15 -11 2 0 3.6
-15 -11 2 6.2 9.7
15 11 -2 1.8 5.5
15 11 -2 3.4 7.9
-15 -11 1 -7.9 7.5
-15 -11 1 0.8 4.5
15 11 -1 0 7.6
15 11 -1 0.6 5.1
-15 -11 0 -3 4.2
-15 -11 0 -4.5 9.1
15 11 0 4.2 7.6
15 11 0 0.3 5
-15 -11 -1 6.2 5.2
15 11 1 -7.4 4.1
15 11 1 -5.1 6.2
-15 -11 -2 -1.6 4.6
15 11 2 -0.9 5.9
15 11 2 -1.8 4.8
-15 -11 -3 9.2 6.4
15 11 3 34.6 9.1
15 11 3 28.5 11.7
-15 -11 -4 16.5 7.5
15 11 4 7.1 7.8
15 11 4 13.1 7.1
-15 -11 -5 13.4 8
15 11 5 29.6 9.9
15 11 5 10.4 6.4
15 11 5 18.1 11
-15 -11 -6 53.09 11.5
15 11 6 42.2 12
15 11 6 74.09 17.4
-15 -10 7 2.7 6.8
-15 -10 5 3.7 7.9
15 10 -5 -3.1 6.2
15 10 -5 0.1 8
-15 -10 4 40 13.9
-15 -10 4 35.9 7
15 10 -4 37 11.9
15 10 -4 40.6 10.4
-15 -10 3 -1.2 7.3
-15 -10 3 1.5 3.9
15 10 -3 9.6 7.4
15 10 -3 -1.2 6.2
-15 -10 2 40.4 8.5
-15 -10 2 65.59 16
15 10 -2 65.69 14.5
15 10 -2 70.79 12.5
-15 -10 1 15.6 10
-15 -10 1 15.5 5.7
15 10 -1 15.5 9.4
15 10 -1 9.3 6.2
-15 -10 0 4.1 4.2
-15 -10 0 -6.3 8.2
15 10 0 0.1 6.4
15 10 0 1.1 5
-15 -10 -1 12.9 6
15 10 1 8.5 8.3
15 10 1 10.4 6.2
-15 -10 -2 49.99 10
15 10 2 42.7 12.3
15 10 2 53.19 10.2
-15 -10 -3 5.9 5.7
15 10 3 3.6 5.9
15 10 3 9.4 5.8
15 10 3 -2.8 5.2
-15 -10 -4 37.5 9.5
15 10 4 50.59 11.1
15 10 4 31.2 11
15 10 4 25.6 8.2
-15 -10 -5 5.7 6.2
15 10 5 -2 4.6
15 10 5 -0.7 5.6
15 10 5 -1.4 6.1
-15 -10 -6 5.8 7.1
15 10 6 13.2 9.7
15 10 6 -3.4 6
-15 -10 -7 1.4 6.7
15 10 7 4.1 7
-15 -9 8 9.1 7.7
-15 -9 7 54.79 12.1
15 9 -6 35.1 12.2
-15 -9 5 74.09 17.4
15 9 -5 77.99 13.4
15 9 -5 69.19 15
-15 -9 4 10.2 9.2
-15 -9 4 13.3 4.6
15 9 -4 7.1 8.6
15 9 -4 10.4 7.2
-15 -9 3 5.1 7.6
-15 -9 3 13.5 5
15 9 -3 10.6 7.8
15 9 -3 7.7 6.4
-15 -9 2 7.1 9
-15 -9 2 5 4.1
15 9 -2 17.8 7.1
15 9 -2 4.7 6.3
-15 -9 1 21.4 10.4
-15 -9 1 31.2 7.1
15 9 -1 19 8.9
15 9 -1 41.1 9.6
-15 -9 0 1.9 4.1
-15 -9 0 -10.7 6.9
15 9 0 3.7 6.5
15 9 0 -1 4.6
-15 -9 -1 29.6 7.5
15 9 1 43.8 9.8
15 9 1 34.9 11
-15 -9 -2 12.6 6
15 9 2 18.2 9
15 9 2 18.3 6.4
15 9 2 4.5 5.1
-15 -9 -3 10.5 6.1
15 9 3 15.8 8.4
15 9 3 10.9 6.3
15 9 3 18.8 6.2
-15 -9 -4 11.2 6.1
15 9 4 16.5 6.7
15 9 4 5 5.8
15 9 4 10.4 8
-15 -9 -5 74.29 12.3
15 9 5 79.79 16.8
15 9 5 68.09 12.9
15 9 5 81.29 12.2
-15 -9 -6 11.2 7
15 9 6 19.7 9.7
15 9 6 22.6 8.9
15 9 6 43.9 12.5
-15 -9 -7 65.39 14.3
15 9 7 56.49 13.2
15 9 7 47.5 13.9
-15 -8 8 4.6 6.9
-15 -8 7 19.1 8.6
15 8 -6 26.6 10.3
-15 -8 5 -0.7 8.3
15 8 -5 7.6 7.2
15 8 -5 2.8 5.9
-15 -8 4 21.9 5.3
-15 -8 4 23.7 10.8
15 8 -4 26.6 10.4
15 8 -4 23.2 7.5
-15 -8 3 20.5 5.5
-15 -8 3 25.9 9.6
-15 -8 3 29.2 11.4
15 8 -3 27.7 8.1
15 8 -3 16.4 8.6
-15 -8 2 42.7 7.9
-15 -8 2 38.5 12.4
15 8 -2 43.8 12.1
15 8 -2 29.3 8.2
-15 -8 1 89.79 12.1
-15 -8 1 88.49 17.7
15 8 -1 74.09 15.1
15 8 -1 104.99 14.4
-15 -8 0 10.3 8.1
-15 -8 0 7.2 4.7
15 8 0 -1.8 4.9
15 8 0 6.4 5.2
15 8 0 10.1 4.6
-15 -8 -1 104.99 13.5
-15 -8 -1 132.09 20.5
15 8 1 144.79 20.2
15 8 1 72.89 11.3
15 8 1 99.69 13.7
-15 -8 -2 30 7.8
15 8 2 59.99 13.1
15 8 2 39.7 8.7
15 8 2 32.2 7.7
-15 -8 -3 15.5 6.2
15 8 3 18.9 6.8
15 8 3 25.2 7.1
15 8 3 32.8 10.1
-15 -8 -4 21.5 7.5
15 8 4 22.1 6.8
15 8 4 25.4 7.9
15 8 4 23.7 9.8
-15 -8 -5 10.8 6.3
15 8 5 -0.5 4.9
15 8 5 11.6 7.1
15 8 5 5.6 5
-15 -8 -6 17.6 7.5
15 8 6 12.2 7.4
15 8 6 11 7.2
15 8 6 25.1 11.3
15 8 7 29.5 11.1
15 8 7 48.9 11.9
15 8 8 24.5 10.3
-15 -7 9 6.2 7.4
-15 -7 8 37.5 10.9
-15 -7 7 14.6 7.8
15 7 -6 57.99 13
15 7 -5 22 7.5
15 7 -5 25.2 9.4
-15 -7 4 68.69 8.8
-15 -7 4 110.59 20.2
15 7 -4 68.59 11.7
15 7 -4 74.19 14.2
-15 -7 3 2.9 3.2
-15 -7 3 18.1 9.7
-15 -7 3 15.8 7.8
15 7 -3 11.3 6
15 7 -3 18.6 8.3
-15 -7 2 12.2 4.5
-15 -7 2 6.6 7.3
15 7 -2 10.2 6.8
15 7 -2 14.4 6
-15 -7 1 33.3 11.2
-15 -7 1 6.6 4.5
15 7 -1 12.2 7.8
15 7 -1 16.4 4.5
15 7 -1 25.7 7.4
-15 -7 0 21.7 9.4
-15 -7 0 36 7.4
15 7 0 20 6.5
15 7 0 17 5.5
15 7 0 41.8 11.1
-15 -7 -1 11.3 8.6
-15 -7 -1 13.3 5.8
15 7 1 12.6 5
15 7 1 27.2 8.7
15 7 1 15.7 6
-15 -7 -2 2.4 4.7
15 7 2 4.1 4.6
15 7 2 7.7 5.9
15 7 2 6.7 4.5
-15 -7 -3 13.4 5.6
15 7 3 -7.1 3.6
15 7 3 8.2 4.9
15 7 3 5.8 4.5
-15 -7 -4 89.69 13.4
15 7 4 124.29 19.3
15 7 4 97.99 14.4
15 7 4 99.19 13.2
-15 -7 -5 19.8 7.3
15 7 5 14.1 8.3
15 7 5 19.2 6.2
15 7 5 14 6.7
15 7 5 26.5 9.7
-15 -7 -6 54.09 10.8
15 7 6 55.09 13.3
15 7 6 29.6 9
15 7 6 47.3 10.5
15 7 6 56.99 9
15 7 7 31.3 10.1
15 7 7 21.5 10.3
15 7 8 7.5 7.2
15 7 9 -6.5 6
-15 -6 9 11.6 8
-15 -6 8 22.6 9.3
-15 -6 8 4.7 6.1
-15 -6 7 20.3 8.1
-15 -6 7 9.3 6.7
15 6 -7 1.7 8.3
-15 -6 6 19.2 8
15 6 -6 10.1 8
-15 -6 5 217.78 23.2
15 6 -5 200.18 25.2
15 6 -5 212.88 19.9
-15 -6 4 129.29 11.9
-15 -6 4 145.59 16.9
-15 -6 4 174.48 24.2
-15 -6 4 145.99 17.6
15 6 -4 143.49 16.5
15 6 -4 105.09 18
-15 -6 3 186.68 16
-15 -6 3 193.28 21
-15 -6 3 204.78 21.1
-15 -6 3 199.48 26.4
15 6 -3 180.18 19
15 6 -3 169.08 22.4
-15 -6 2 70.29 14.4
-15 -6 2 79.89 16.7
-15 -6 2 100.79 11.8
15 6 -2 87.59 15.4
15 6 -2 96.09 12.8
15 6 -2 82.49 9.6
-15 -6 1 16.5 8.3
-15 -6 1 7.5 4.4
15 6 -1 11.6 5.1
15 6 -1 8.5 6.7
15 6 -1 13.6 4.3
-15 -6 0 105.49 12.9
-15 -6 0 119.49 18
15 6 0 102.69 16.4
15 6 0 97.99 11.7
15 6 0 121.99 14.2
-15 -6 -1 2.4 6.8
-15 -6 -1 22.5 6.7
15 6 1 19.1 6
15 6 1 26.7 9.1
15 6 1 16.3 5
-15 -6 -2 87.89 12.4
15 6 2 59.69 12.8
15 6 2 97.79 12.2
15 6 2 98.59 12.7
-15 -6 -3 172.98 18.9
15 6 3 160.68 21.8
15 6 3 183.48 19.5
15 6 3 195.88 17.5
-15 -6 -4 133.39 16.3
15 6 4 170.98 16.8
15 6 4 121.79 15.7
15 6 4 119.29 18.5
-15 -6 -5 245.98 20.9
15 6 5 222.48 26.8
15 6 5 191.18 22.4
15 6 5 193.28 22.1
15 6 5 218.08 18.6
-15 -6 -6 17.7 7
15 6 6 10.6 7.4
15 6 6 5.4 6.7
15 6 6 5.5 5.7
15 6 6 4.6 3.8
15 6 7 8.1 5.6
15 6 7 15.8 8.4
15 6 7 12.8 6.9
15 6 8 19 8.1
15 6 9 27.1 10.7
-15 -5 10 14.4 8.8
-15 -5 10 23.2 9.3
-15 -5 9 -5 5.2
-15 -5 9 -6.8 6.6
-15 -5 8 27.1 9.5
-15 -5 8 27.9 9.1
-15 -5 7 96.89 14.9
-15 -5 7 88.89 14.7
15 5 -7 105.19 17.6
-15 -5 6 107.99 15.4
15 5 -6 92.99 17
-15 -5 5 237.08 21.6
15 5 -5 226.98 20.1
15 5 -5 182.28 24.2
-15 -5 4 135.99 11.8
-15 -5 4 137.49 16.1
-15 -5 4 147.29 17.3
15 5 -4 142.99 16.1
15 5 -4 154.78 21.2
-15 -5 3 79.69 13.8
-15 -5 3 86.09 16.4
-15 -5 3 103.69 13.9
-15 -5 3 110.09 11.4
15 5 -3 101.39 12.8
15 5 -3 107.59 16.4
-15 -5 2 81.19 16.4
-15 -5 2 112.39 12.6
-15 -5 2 111.19 14.3
-15 -5 2 124.19 20
15 5 -2 110.79 16.9
15 5 -2 121.89 14
-15 -5 1 57.99 14.6
-15 -5 1 50.19 12.4
-15 -5 1 56.49 9.1
-15 -5 1 40.6 7.5
15 5 -1 33.1 9.9
15 5 -1 46.8 8.4
-15 -5 0 13.6 5
-15 -5 0 19.1 6
-15 -5 0 22.7 8.7
15 5 0 22.1 5.3
15 5 0 19.7 6
15 5 0 17.7 7.6
-15 -5 -1 53.59 11.7
-15 -5 -1 34.3 7.7
15 5 1 29 6.2
15 5 1 26.5 8.9
15 5 1 37.8 7.5
-15 -5 -2 101.19 15.6
-15 -5 -2 110.89 13.6
15 5 2 97.09 12.4
15 5 2 119.69 17.3
15 5 2 79.49 11.3
-15 -5 -3 82.59 11.6
15 5 3 90.39 11.9
15 5 3 71.49 13.7
15 5 3 76.09 11
-15 -5 -4 141.09 16.6
15 5 4 141.69 17
15 5 4 163.48 21.1
15 5 4 138.69 15.9
15 5 4 140.29 20.9
-15 -5 -5 181.68 20.3
15 5 5 224.68 18.6
15 5 5 211.28 22.6
15 5 5 231.88 21
15 5 5 200.18 24.5
-15 -5 -6 99.49 13.6
15 5 6 89.29 14.6
15 5 6 78.99 15.1
15 5 6 95.29 11.2
15 5 6 88.59 14.5
15 5 7 91.79 14.1
15 5 7 75.09 12.7
15 5 7 62.29 12.7
15 5 7 74.79 14.7
15 5 8 24.8 9
15 5 9 7.4 7.7
-15 -4 10 10.9 9.1
-15 -4 10 16.4 8.3
-15 -4 9 57.99 13.4
-15 -4 9 63.79 14
-15 -4 8 63.19 12.7
-15 -4 8 56.09 12.3
-15 -4 7 30.4 8.7
-15 -4 7 29.6 8.8
15 4 -7 30.3 10.4
-15 -4 6 26.7 8.2
15 4 -6 6.2 7.5
-15 -4 5 39.2 9.1
15 4 -5 29.8 9.4
15 4 -5 22.5 7.1
-15 -4 4 30.1 4.9
-15 -4 4 25.8 7.2
15 4 -4 31.1 7.4
15 4 -4 11.3 7.7
-15 -4 3 91.79 13
-15 -4 3 88.89 14.5
-15 -4 3 78.79 9.7
15 4 -3 72.59 13.9
15 4 -3 86.89 11.4
-15 -4 2 9 3.8
-15 -4 2 10.8 7.5
-15 -4 2 3.2 6.3
-15 -4 2 1.4 3.8
15 4 -2 3.3 4.2
15 4 -2 2.8 5.4
-15 -4 1 125.49 13.8
-15 -4 1 128.29 18.7
-15 -4 1 122.79 13.9
-15 -4 1 106.09 17.3
15 4 -1 107.79 16.6
15 4 -1 133.29 14.4
-15 -4 0 173.08 21.6
-15 -4 0 183.18 16.1
-15 -4 0 164.08 15
15 4 0 161.98 20.7
15 4 0 151.28 16.8
15 4 0 150.78 14.3
-15 -4 -1 109.19 13.1
-15 -4 -1 111.19 12.1
-15 -4 -1 97.89 14.7
15 4 1 94.39 12.1
15 4 1 115.29 12.3
15 4 1 91.69 15.2
-15 -4 -2 10.8 6.3
-15 -4 -2 2.8 4.1
15 4 2 -1.4 2.6
15 4 2 2.3 3.3
15 4 2 -2 3.8
-15 -4 -3 76.59 13.1
-15 -4 -3 76.89 11.4
15 4 3 52.29 12.1
15 4 3 72.39 10.2
15 4 3 99.39 12.4
15 4 3 62.89 12.7
-15 -4 -4 29.2 7.8
15 4 4 34.2 9.7
15 4 4 33.3 7.6
15 4 4 24.1 8.6
15 4 4 26.5 6.4
-15 -4 -5 28.3 8.1
15 4 5 15.6 7.4
15 4 5 44.4 7.5
15 4 5 47.1 10
15 4 5 20.7 7.6
-15 -4 -6 9.6 6.2
15 4 6 9.7 6.5
15 4 6 18.8 7.9
15 4 6 15 6.2
15 4 6 21 4.9
15 4 6 20 7.1
15 4 7 30.5 8.4
15 4 7 50.39 11.7
15 4 7 30.2 8.7
15 4 7 24.1 7.3
15 4 8 45.4 10.8
15 4 9 45 11.7
15 4 10 1.2 7.2
-15 -3 10 -1.6 6.5
-15 -3 9 30.7 10
-15 -3 9 18.1 8.9
-15 -3 8 35.1 9.6
-15 -3 8 17.5 7.5
-15 -3 7 19.3 7.5
-15 -3 7 29.6 8.5
15 3 -7 9.9 7.9
-15 -3 6 60.79 11.5
15 3 -6 64.69 13.9
-15 -3 5 63.29 9.3
-15 -3 5 56.89 10.9
15 3 -5 70.09 14.5
-15 -3 4 256.87 22.7
-15 -3 4 240.58 18.2
-15 -3 4 260.47 22.8
15 3 -4 253.67 25.3
-15 -3 3 218.58 19.9
-15 -3 3 234.78 22.7
-15 -3 3 213.78 17.3
15 3 -3 209.48 25.4
-15 -3 2 26.7 7
-15 -3 2 25.7 5.9
-15 -3 2 28.2 9.8
-15 -3 2 22.7 9.4
15 3 -2 23.5 8.3
15 3 -2 34.6 7.4
-15 -3 1 53.19 9
-15 -3 1 63.49 12.8
-15 -3 1 83.89 16.6
-15 -3 1 56.09 9.1
15 3 -1 55.29 9
15 3 -1 51.59 11.5
-15 -3 0 8.8 4.2
-15 -3 0 15.5 6.9
-15 -3 0 9.7 4.7
-15 -3 0 13.2 6.7
15 3 0 11.2 5.7
15 3 0 18.9 5.6
-15 -3 -1 47.7 10.3
-15 -3 -1 41.5 8
-15 -3 -1 56.09 7.8
15 3 1 45.5 10.5
15 3 1 54.59 8.8
15 3 1 51.59 7.9
-15 -3 -2 22.3 4.9
-15 -3 -2 23.8 6.5
-15 -3 -2 14.3 6.8
15 3 2 13.7 4.9
15 3 2 18.8 8.1
15 3 2 22.9 5.7
15 3 2 22.5 8
-15 -3 -3 205.58 18.9
-15 -3 -3 227.78 20.5
15 3 3 225.28 19
15 3 3 202.48 23.9
15 3 3 194.18 22.1
15 3 3 206.98 18.2
-15 -3 -4 288.97 22.8
15 3 4 245.58 25.1
15 3 4 265.87 22.7
15 3 4 230.18 20.6
15 3 4 295.57 25.3
-15 -3 -5 58.59 10.2
15 3 5 53.69 11.6
15 3 5 62.09 8.9
15 3 5 55.09 9.9
15 3 5 62.29 12.6
-15 -3 -6 83.59 12.3
15 3 6 71.09 13
15 3 6 53.89 10.8
15 3 6 64.19 8.5
15 3 6 57.49 11.4
15 3 6 49.3 10.2
15 3 7 19.7 6.3
15 3 7 12.9 5.5
15 3 7 11.8 6.4
15 3 8 13.4 7.9
15 3 9 21.9 8.2
15 3 10 15.8 8
-15 -2 10 11 7.7
-15 -2 9 10.9 6.9
-15 -2 8 15 7.7
-15 -2 8 10 6.7
15 2 -8 10.5 8.3
-15 -2 7 40.4 9.4
-15 -2 7 48.7 11.5
15 2 -7 33.5 11.4
-15 -2 6 127.89 17
15 2 -6 137.19 19.9
-15 -2 5 78.79 12.7
-15 -2 5 70.49 9.5
15 2 -5 52.89 13.2
-15 -2 4 53.89 6.7
-15 -2 4 43.7 9.4
-15 -2 4 58.69 10.4
15 2 -4 54.19 12.2
-15 -2 3 66.39 8.4
-15 -2 3 84.49 13.9
-15 -2 3 60.89 10.4
15 2 -3 42.7 10.8
-15 -2 2 76.89 10
-15 -2 2 71.09 10.5
-15 -2 2 107.39 17
15 2 -2 58.09 12
-15 -2 1 -3.5 2.8
-15 -2 1 4.3 6
-15 -2 1 -3.7 4.8
-15 -2 1 5.8 4.2
15 2 -1 3.7 5.4
-15 -2 0 10.6 6.9
-15 -2 0 5.6 4.1
-15 -2 0 6.4 6
-15 -2 0 7.1 4.1
15 2 0 16.2 7.2
15 2 0 6.4 4.1
-15 -2 -1 -2.1 3.6
-15 -2 -1 4.2 3.4
-15 -2 -1 7.9 5.6
15 2 1 1.2 3.2
15 2 1 0.5 4.5
15 2 1 2.1 4
-15 -2 -2 62.69 11.3
-15 -2 -2 72.39 8.7
-15 -2 -2 61.49 9.6
15 2 2 48.9 11.3
15 2 2 68.19 10
15 2 2 80.29 10.4
15 2 2 74.29 12.7
-15 -2 -3 47.8 8.6
-15 -2 -3 59.99 10.8
15 2 3 53.69 12.5
15 2 3 54.29 8.7
15 2 3 38.2 7.3
15 2 3 42.2 9.9
-15 -2 -4 47.6 9.2
-15 -2 -4 48.6 9.9
15 2 4 55.39 11.5
15 2 4 40.9 7.4
15 2 4 52.29 8.8
15 2 4 50.69 12.2
-15 -2 -5 64.19 10.5
15 2 5 66.59 9.2
15 2 5 48.4 9.6
15 2 5 85.89 13.6
15 2 5 50.99 11.5
15 2 5 72.49 12.9
-15 -2 -6 150.58 17
15 2 6 153.68 17.6
15 2 6 141.19 12.9
15 2 6 136.09 16.5
15 2 6 149.39 19.3
15 2 6 162.98 18.9
15 2 7 40.3 8.3
15 2 7 43.6 9.9
15 2 7 38.1 8.5
15 2 8 8.2 6.7
15 2 9 27.6 8.6
15 2 10 6.5 7.3
-15 -1 10 7.4 6.8
-15 -1 9 56.59 12.6
-15 -1 8 3.8 5.6
15 1 -8 -3.5 6.8
-15 -1 7 216.88 19.9
-15 -1 7 216.68 24
15 1 -7 205.58 26.7
-15 -1 6 82.59 11.2
-15 -1 6 58.69 11.7
15 1 -6 88.99 16.4
-15 -1 5 61.69 8.5
-15 -1 5 60.09 11.5
15 1 -5 65.99 14.4
-15 -1 4 60.59 10.6
-15 -1 4 55.39 6.5
-15 -1 4 38.9 8.8
15 1 -4 41 12
-15 -1 3 154.58 16.9
-15 -1 3 136.29 16.9
-15 -1 3 158.48 12.9
15 1 -3 117.59 18.6
-15 -1 2 105.29 14.9
-15 -1 2 119.19 13.8
-15 -1 2 92.49 11.2
15 1 -2 152.98 19.7
-15 -1 1 49.5 8.3
-15 -1 1 36.3 8.3
-15 -1 1 52.39 7.9
15 1 -1 61.29 11.8
-15 -1 0 2.4 3.7
-15 -1 0 1.1 3.3
-15 -1 0 1.3 6.7
15 1 0 8.5 5.8
-15 -1 -1 54.29 8.1
-15 -1 -1 61.99 11.8
-15 -1 -1 56.99 14.3
-15 -1 -1 41.9 8.1
15 1 1 41.9 9.4
15 1 1 36.6 9.4
-15 -1 -2 78.99 9.4
-15 -1 -2 80.79 12.7
-15 -1 -2 72.29 10.7
15 1 2 64.39 9.6
15 1 2 53.59 11.4
15 1 2 78.59 13.2
-15 -1 -3 75.29 12.3
-15 -1 -3 118.99 14.1
-15 -1 -3 92.69 12
15 1 3 86.19 11.3
15 1 3 111.29 12.2
15 1 3 74.89 13.6
15 1 3 102.49 14.9
-15 -1 -4 50.29 9.5
-15 -1 -4 56.09 9.4
15 1 4 37.9 7.8
15 1 4 53.89 8
15 1 4 59.99 11.3
15 1 4 35.9 10.4
-15 -1 -5 48.5 9.4
15 1 5 33.8 9
15 1 5 45.3 10.2
15 1 5 53.89 9.2
15 1 5 51.09 7.5
15 1 5 36.3 9.5
-15 -1 -6 58.69 11.1
15 1 6 66.89 12.5
15 1 6 81.39 9.2
15 1 6 96.49 13.3
15 1 6 67.49 12.4
15 1 6 81.19 13.4
15 1 7 195.38 18.8
15 1 7 227.38 21.2
15 1 7 211.18 19.5
15 1 8 2.1 5.2
15 1 9 36 10.8
15 1 10 25.9 10.2
-15 0 10 31.2 10.8
-15 0 9 0.2 6
-15 0 8 3 6.4
15 0 -8 -0.8 8.3
-15 0 7 -4.5 4.5
15 0 -7 7.7 8.7
-15 0 6 -3.5 4.1
-15 0 6 -1.7 4.5
15 0 -6 -3.1 6.2
-15 0 5 -2.3 2.4
-15 0 5 1.6 5.2
15 0 -5 -2.1 5.6
-15 0 4 2.2 4.5
-15 0 4 -3.2 3.9
-15 0 4 2.6 2.4
15 0 -4 -2.4 6.1
-15 0 3 3.4 2.9
-15 0 3 1 4.1
-15 0 3 5.8 4.9
15 0 -3 8.5 6.7
-15 0 2 4 4
-15 0 2 1.8 4.8
-15 0 2 0.9 3
15 0 -2 -1.5 4.6
-15 0 1 -0.8 3.5
-15 0 1 -0.4 3.1
-15 0 1 3 6.4
15 0 -1 0.5 4.7
-15 0 0 -0.1 3.4
-15 0 0 -1.5 2.9
-15 0 0 5.5 6.4
15 0 0 -1.1 4.6
-15 0 -1 -1.2 3.1
-15 0 -1 5.8 6.9
-15 0 -1 10 4.7
15 0 1 2.2 4.1
15 0 1 0.8 4.1
-15 0 -2 -4.6 3.7
-15 0 -2 2.9 3
-15 0 -2 -1.5 4.3
15 0 2 3.3 4.3
15 0 2 -1.5 3.7
-15 0 -3 -6.6 3.6
-15 0 -3 -1.9 2.8
-15 0 -3 -1.9 4
15 0 3 -1.5 2.1
15 0 3 -2.2 4.3
15 0 3 -2.1 2.8
15 0 3 -6.6 3.2
-15 0 -4 -3.2 4
15 0 4 0.1 2.8
15 0 4 0.1 6.2
15 0 4 -0.3 2.7
15 0 4 -2.8 3.6
15 0 4 -2 3.9
-15 0 -5 -3.9 4.1
15 0 5 -5 3.4
15 0 5 -3.4 3.8
15 0 5 -0.6 4.2
15 0 5 -3.5 2.6
15 0 5 1.4 3.1
-15 0 -6 5.4 5.7
15 0 6 -0.6 4.1
15 0 6 -1.7 2.6
15 0 6 -1.6 4.1
15 0 6 3.6 4.5
15 0 7 0.4 3.8
15 0 7 0.9 4.4
15 0 7 1.4 4
15 0 8 1.1 5
15 0 9 15.6 8.3
15 0 10 3.1 6.2
-15 1 10 9.1 8.2
-15 1 9 55.29 12.5
15 -1 -9 44.7 13.1
-15 1 8 3 5.7
15 -1 -8 0.2 6.9
-15 1 7 267.27 26.8
15 -1 -7 194.38 26.3
-15 1 6 83.29 14.1
15 -1 -6 81.89 16.1
-15 1 5 52.39 8.3
-15 1 5 52.99 10.6
15 -1 -5 66.89 14.6
-15 1 4 48.1 6.2
-15 1 4 37.6 9.1
-15 1 4 47.4 9.7
15 -1 -4 51.89 13.1
-15 1 3 125.89 14.7
-15 1 3 107.79 11.5
-15 1 3 98.29 15.4
15 -1 -3 151.28 20.5
-15 1 2 92.09 15
-15 1 2 89.29 10.8
15 -1 -2 96.39 15.6
-15 1 1 74.49 9.7
-15 1 1 54.29 12.3
15 -1 -1 51.49 11.8
-15 1 0 4.7 3.8
-15 1 0 0.6 6.3
15 -1 0 -2.5 3.8
-15 1 -1 58.49 8.8
-15 1 -1 48.8 12.7
15 -1 1 27.8 7.8
15 -1 1 41.6 10.4
-15 1 -2 63.79 9.7
15 -1 2 79.09 12.9
15 -1 2 53.29 11
-15 1 -3 119.49 14
15 -1 3 115.79 13.4
15 -1 3 98.89 14.9
15 -1 3 112.79 18.1
-15 1 -4 49.5 9
15 -1 4 46.2 8.3
15 -1 4 55.89 8.2
15 -1 4 45.3 11.1
15 -1 4 46.6 10.4
-15 1 -5 44.5 9
15 -1 5 40.2 8.2
15 -1 5 66.09 11.4
15 -1 5 51.99 7.9
15 -1 5 59.29 12.8
15 -1 5 59.59 11.6
-15 1 -6 67.19 11.4
15 -1 6 81.19 12
15 -1 6 75.59 12.3
15 -1 6 79.99 9.1
15 -1 6 62.09 11.8
15 -1 7 204.78 19.6
15 -1 7 215.98 19.7
15 -1 7 224.28 20.9
15 -1 8 2.2 4.7
15 -1 9 47.8 12
15 -1 10 24.2 9.5
-15 2 10 16.4 9.2
-15 2 9 5.6 6.8
15 -2 -9 15.1 10.6
-15 2 8 7.4 6.5
15 -2 -8 10.1 9.2
-15 2 7 52.69 11.5
15 -2 -7 19.7 10.3
-15 2 6 129.79 17.3
15 -2 -6 130.99 20.7
-15 2 5 67.49 9.8
-15 2 5 64.49 11.6
15 -2 -5 66.99 15.4
-15 2 4 65.29 7.8
15 -2 -4 82.59 15.9
-15 2 3 67.59 9
-15 2 3 82.09 15.1
15 -2 -3 73.09 15.1
-15 2 2 82.29 10.2
-15 2 2 67.19 13.2
15 -2 -2 86.79 15.5
-15 2 1 -7.2 5
-15 2 1 8.5 4.4
15 -2 -1 0 4.6
-15 2 0 9.7 7.7
-15 2 0 12.9 4.9
15 -2 0 10.4 7.3
-15 2 -1 -1.4 3.6
15 -2 1 -3.5 4.3
-15 2 -2 74.29 10.4
15 -2 2 74.89 13.4
-15 2 -3 35.6 7.6
15 -2 3 70.49 14.4
15 -2 3 47.7 10.6
-15 2 -4 34.4 7.5
15 -2 4 36.7 10.6
15 -2 4 36.5 9.1
15 -2 4 31.7 6.6
15 -2 4 45.9 8.1
-15 2 -5 62.99 10.1
15 -2 5 64.29 8.8
15 -2 5 77.89 12.4
15 -2 5 43.5 10.9
15 -2 5 57.19 9.4
15 -2 5 42.4 10.5
-15 2 -6 161.98 16.9
15 -2 6 109.39 15.9
15 -2 6 130.99 15.7
15 -2 6 112.59 16.5
15 -2 6 151.18 12.1
15 -2 7 35.5 8.3
15 -2 7 32.8 7.5
15 -2 7 31.2 7.8
15 -2 8 8.5 5.7
15 -2 9 18.8 7.5
15 -2 10 16.9 7.6
-15 3 10 12.8 8.7
-15 3 9 27.2 9.8
15 -3 -9 21.6 10.1
-15 3 8 16.4 7.9
15 -3 -8 8 9
-15 3 7 15 7
15 -3 -7 15.3 9.6
15 -3 -6 80.89 16.4
-15 3 5 59.59 9.6
15 -3 -5 52.19 13.5
-15 3 4 266.77 19.5
-15 3 4 241.58 24.1
15 -3 -4 288.87 32.4
-15 3 3 166.18 21
-15 3 3 210.28 16.7
15 -3 -3 240.68 28
-15 3 2 18.9 8.3
-15 3 2 18.6 5.5
15 -3 -2 26.9 9.1
-15 3 1 67.39 9.9
-15 3 1 53.49 12.5
15 -3 -1 67.09 13.9
-15 3 0 0.2 6.8
-15 3 0 10.8 5.1
15 -3 0 20.2 8.3
-15 3 -1 59.79 9.2
15 -3 1 41.6 10.3
-15 3 -2 18.2 5.8
15 -3 2 26.5 7.9
-15 3 -3 234.08 19.5
15 -3 3 255.67 22.5
15 -3 3 176.28 22.1
-15 3 -4 244.68 21.4
15 -3 4 275.47 23.5
15 -3 4 226.98 24.8
15 -3 4 253.67 20.9
-15 3 -5 60.89 10
15 -3 5 66.99 9.2
15 -3 5 54.39 10.9
15 -3 5 52.39 9
-15 3 -6 57.89 10.2
15 -3 6 76.29 11.2
15 -3 6 70.99 8.5
15 -3 6 51.79 11.1
15 -3 6 35.3 8.9
15 -3 7 18.3 6.4
15 -3 7 20 6.6
15 -3 7 20.8 6.9
15 -3 8 20.5 7.4
15 -3 9 35.3 9.6
15 -3 10 10.3 7.6
-15 4 10 18.4 9.2
-15 4 9 49.6 12
15 -4 -9 62.89 16.5
-15 4 8 57.59 12.8
15 -4 -8 43.9 13.3
15 -4 -7 25.6 11.7
15 -4 -6 25.5 10.4
-15 4 5 44.6 9.4
15 -4 -5 44 13.2
-15 4 4 19.9 8.8
-15 4 4 42.4 6.4
15 -4 -4 24.9 10.1
-15 4 3 74.19 14.3
-15 4 3 85.89 10.4
15 -4 -3 70.99 15.1
-15 4 2 0.8 4
-15 4 2 6.8 6.8
15 -4 -2 -3 5
-15 4 1 97.09 12.9
-15 4 1 139.89 20.1
15 -4 -1 101.69 17.3
-15 4 0 142.39 15.5
15 -4 0 138.39 20.4
-15 4 -1 135.69 15
15 -4 1 98.49 16.8
-15 4 -2 -0.8 3.3
15 -4 2 -1.5 3.9
-15 4 -3 96.69 12.3
15 -4 3 75.39 13.8
-15 4 -4 23.4 6.7
15 -4 4 28.3 10
15 -4 4 52.79 8.6
15 -4 4 23.1 8.1
-15 4 -5 29.1 7.5
15 -4 5 50.59 8.5
15 -4 5 9.9 5.9
-15 4 -6 26.2 7.7
15 -4 6 19 6.1
15 -4 6 12.7 6.4
15 -4 6 22.4 5.3
15 -4 6 14.9 6.5
15 -4 7 26.3 7.5
15 -4 7 36.5 8.5
15 -4 7 25.1 7.1
15 -4 8 61.39 11.5
15 -4 9 51.69 11.1
15 -4 10 13.4 8
-15 5 10 14.7 9.4
15 -5 -10 24.5 13.4
-15 5 9 -0.8 6.6
15 -5 -9 -7.6 8.4
15 -5 -8 20.9 12.7
15 -5 -7 94.39 19.4
15 -5 -6 110.79 20.3
-15 5 5 213.18 21.4
15 -5 -5 228.18 29.2
-15 5 4 149.49 19.1
-15 5 4 144.09 13.2
15 -5 -4 132.39 22.6
-15 5 3 116.99 13.5
-15 5 3 119.69 19.3
15 -5 -3 125.59 20.6
-15 5 2 118.89 18.8
-15 5 2 133.49 14.5
15 -5 -2 103.89 19.1
-15 5 1 37.9 7.8
-15 5 1 32.9 10.9
15 -5 -1 53.29 12.8
-15 5 0 33.7 7.4
15 -5 0 25.8 10.2
-15 5 -1 32 7.2
15 -5 1 45.8 10.9
-15 5 -2 114.59 14.2
15 -5 2 96.79 15.5
-15 5 -3 102.29 13.5
15 -5 3 95.49 15.1
-15 5 -4 163.88 18.3
15 -5 4 137.89 18.3
-15 5 -5 213.38 20
15 -5 5 216.18 18.8
15 -5 5 202.78 23.2
-15 5 -6 74.99 12.3
15 -5 6 110.39 11.8
15 -5 6 78.39 14.6
15 -5 6 101.09 13
15 -5 7 69.79 12.1
15 -5 7 59.99 11
15 -5 7 71.99 11.6
15 -5 8 20.3 7.5
15 -5 9 -0.5 6.3
15 -6 -9 14 11.8
15 -6 -8 4.8 11.1
15 -6 -7 9.8 10.7
15 -6 -6 12.9 10.1
-15 6 5 211.18 21.9
15 -6 -5 207.18 29.5
-15 6 4 158.48 14.3
-15 6 4 166.28 21
15 -6 -4 118.99 21.8
-15 6 3 184.28 23.2
-15 6 3 190.28 17.2
15 -6 -3 199.68 27.2
-15 6 2 117.69 18.7
-15 6 2 87.49 12.6
15 -6 -2 95.29 18.7
-15 6 1 22.3 6.7
15 -6 -1 17.7 8.8
-15 6 0 112.39 13.8
15 -6 0 97.69 17.8
-15 6 -1 25.1 7
15 -6 1 25.8 10.2
-15 6 -2 92.99 13
15 -6 2 72.09 13.7
-15 6 -3 176.58 19.5
15 -6 3 188.18 22.8
-15 6 -4 141.39 16.7
-15 6 -5 269.57 22.5
15 -6 5 206.78 19.3
-15 6 -6 7.8 5.7
15 -6 6 18.7 5.8
15 -6 6 3.9 6
15 -6 7 20.8 6.5
15 -6 7 12.1 7.5
15 -6 7 5.7 5
15 -6 8 10.6 8.2
15 -7 -9 14.5 12.5
15 -7 -8 16.5 12.2
15 -7 -7 16 12.7
-15 7 6 66.49 10
15 -7 -6 93.29 21.1
-15 7 5 19.6 8.7
-15 7 5 20.6 7.1
-15 7 4 109.89 13.3
-15 7 4 131.29 20.7
15 -7 -4 133.19 22.5
-15 7 3 16.7 5.7
-15 7 3 13.1 8.4
15 -7 -3 0.2 7.7
-15 7 2 9.5 5.4
15 -7 -2 6.4 8.5
-15 7 1 20.6 6.3
15 -7 -1 20.9 10.1
-15 7 0 34.4 7.7
15 -7 0 23.8 9.9
-15 7 -1 25.2 7.4
15 -7 1 23.9 9.4
-15 7 -2 6.3 4.6
15 -7 2 -5.2 5.1
-15 7 -3 12.9 5.8
15 -7 3 9.5 6.7
-15 7 -4 73.69 11.9
-15 7 -5 2.5 4.8
15 -7 5 8.8 7
15 -7 5 30.2 6.8
-15 7 -6 63.79 11.6
15 -7 6 31.2 10
15 -7 6 59.59 9.6
15 -7 6 54.89 10.9
15 -7 7 12.9 8
15 -7 8 13.1 8.8
15 -7 9 0 7.6
15 -8 -8 50.79 17.2
15 -8 -7 24.1 12.4
15 -8 -6 13.8 10.7
-15 8 5 4 8.1
15 -8 -5 -2.7 8.4
-15 8 4 15.7 5.8
-15 8 4 22.1 10.9
15 -8 -4 37.9 14.3
-15 8 3 36.9 8.3
-15 8 3 28.8 11.1
15 -8 -3 27.6 12
-15 8 2 24.4 7
15 -8 -2 42.1 13.1
-15 8 1 101.89 13.9
15 -8 -1 83.49 18.3
-15 8 0 8.3 4.9
15 -8 0 7.7 7.2
-15 8 -1 115.69 15.6
15 -8 1 104.69 19.3
-15 8 -2 38.4 8.6
15 -8 2 25.2 10.3
-15 8 -3 14.4 6.7
15 -8 3 21.5 8.6
-15 8 -4 19.4 7.1
-15 8 -5 20.8 7.6
15 -8 5 6.9 6.1
15 -8 5 2.5 4.4
-15 8 -6 15.7 6.9
15 -8 6 5.9 7.3
15 -8 7 27.6 9.7
15 -8 8 10.9 8.8
15 -9 -8 20.8 13.4
15 -9 -7 32.8 16.1
15 -9 -6 48.4 16.7
15 -9 -5 91.89 20.9
-15 9 4 6.4 5.1
-15 9 4 10.1 9.7
15 -9 -4 12.6 10.2
-15 9 3 10.5 5.9
15 -9 -3 15.7 11.3
-15 9 2 14.6 6.3
15 -9 -2 16.9 10.5
-15 9 1 27 7.7
15 -9 -1 16.8 10.2
-15 9 0 0.6 4.2
15 -9 0 -1.2 7.3
-15 9 -1 29.8 8.4
15 -9 1 14.2 8.9
-15 9 -2 13.5 6.4
15 -9 2 5 7.8
-15 9 -3 23 7.9
15 -9 3 10.1 7.5
-15 9 -4 9.5 6.6
-15 9 -5 87.09 14.2
-15 9 -6 11.6 6.9
15 -9 7 47.2 12.2
15 -9 8 24.8 10.7
15 -10 -7 15.8 13.3
15 -10 -6 9.7 12.2
15 -10 -5 -1 9.5
-15 10 4 42.7 8.9
15 -10 -4 13.5 11.6
-15 10 3 0.8 4.9
15 -10 -3 1.6 9.1
-15 10 2 64.89 11.8
15 -10 -2 59.09 16.9
-15 10 1 27.7 8.5
15 -10 -1 9.5 9.5
-15 10 0 2.6 5
15 -10 0 6 7.4
-15 10 -1 2.7 5.2
15 -10 1 12.6 9.2
-15 10 -2 69.19 13
15 -10 2 43.1 13.1
-15 10 -3 3.9 5.9
-15 10 -4 46.8 10.9
-15 10 -5 5.9 6.4
-15 10 -6 13.4 7.3
15 -11 -6 29.2 15.3
15 -11 -5 9.8 12.8
-15 11 4 12.4 6.3
15 -11 -4 -6.3 10.7
-15 11 3 37.7 9.7
15 -11 -3 25.9 13.1
-15 11 2 1.5 5
15 -11 -2 11.3 11.5
-15 11 1 4.9 5.6
15 -11 -1 -3.7 7.3
-15 11 0 3.4 5.2
15 -11 0 0.2 7.7
-15 11 -1 -3 4.5
15 -11 1 1.7 7.4
-15 11 -2 4.1 5.8
15 -11 2 15.9 9.7
-15 11 -3 14.3 7.3
-15 11 -4 15.4 6.8
-15 11 -5 7.7 7.1
-15 11 -6 31.9 10.5
15 -12 -4 -11.5 9.9
-15 12 3 10.6 7.1
15 -12 -3 12.4 12.1
-15 12 2 1.6 5.8
15 -12 -2 10.3 11.3
-15 12 1 -7.4 4.6
15 -12 -1 1.6 10
-15 12 0 0.7 5.7
15 -12 0 8 10.1
-15 12 -1 2.7 6
15 -12 1 0.8 8.1
-15 12 -2 -0.9 5.3
15 -12 2 6.2 9.2
-15 12 -3 18.6 8.7
-15 12 -4 -2.8 5.2
-15 13 2 25.7 9.9
15 -13 -2 40.9 17.4
-15 13 1 28.4 9.8
15 -13 -1 30.6 15
-15 13 0 51.69 12.3
15 -13 0 29.9 13.7
-15 13 -1 43.2 10.7
15 -13 1 20.3 11.8
-15 13 -2 11.4 8.2
-16 -13 1 8.6 10.7
16 13 -1 -1.8 6
-16 -13 0 -2.3 11.5
-16 -13 0 1.1 5
16 13 0 -11.3 7.1
16 13 0 0.8 6.7
16 13 1 -3.6 5
-16 -12 4 4.4 8.9
16 12 -4 7.1 8.7
16 12 -4 -1.9 7.1
-16 -12 3 0.1 4.4
-16 -12 3 4.5 9.5
16 12 -3 -3.6 8.4
16 12 -3 16.4 9.3
-16 -12 2 30.4 13.8
-16 -12 2 48.2 9.9
16 12 -2 57.59 12.8
16 12 -2 36.7 11.9
-16 -12 1 26 7.1
-16 -12 1 12 12
16 12 -1 21.6 8.4
16 12 -1 40 12.7
-16 -12 0 9.2 12.7
-16 -12 0 31.4 8.5
16 12 0 43.4 14.1
16 12 0 21.1 9
-16 -12 -1 21.4 7.6
16 12 1 17.9 7.7
16 12 1 16.1 10.3
-16 -12 -2 29.5 8.9
16 12 2 43.4 10.5
16 12 2 42.8 14.7
-16 -12 -3 4.1 6.2
16 12 3 0.1 7.8
16 12 3 0.5 4.9
-16 -12 -4 12.9 7.9
16 12 4 3.4 6
16 12 4 18.7 11.4
-16 -11 5 146.39 26.8
16 11 -5 149.39 20.9
16 11 -5 156.88 24.3
-16 -11 4 6.3 10
16 11 -4 10.7 8.2
16 11 -4 1.6 9.2
-16 -11 3 91.59 12.7
-16 -11 3 73.79 18.9
16 11 -3 99.69 16.4
16 11 -3 92.89 19.2
-16 -11 2 9.3 5.2
-16 -11 2 11.1 10.2
16 11 -2 -3.3 6
16 11 -2 16.8 9.7
-16 -11 1 44.3 15
-16 -11 1 42.3 8.8
16 11 -1 47.5 11.7
16 11 -1 65.79 15.8
-16 -11 0 5.6 10.2
-16 -11 0 11.9 6.3
16 11 0 22.2 8.3
16 11 0 7.7 8.5
-16 -11 -1 53.69 10.4
-16 -11 -1 42.6 14.2
16 11 1 30.1 8.8
16 11 1 38.1 13
-16 -11 -2 1.4 5.1
16 11 2 5.7 6.2
16 11 2 -1.4 6.5
-16 -11 -3 79.69 13.5
16 11 3 103.89 15.5
16 11 3 75.79 17.6
-16 -11 -4 3.1 6.1
16 11 4 13.7 7
16 11 4 11.1 9.5
-16 -11 -5 154.78 20
16 11 5 172.18 20.3
16 11 5 161.78 25.8
16 11 5 148.99 20.8
-16 -10 5 24.1 12.3
16 10 -5 13.6 8.8
16 10 -5 12.1 9.4
-16 -10 4 32 8.4
-16 -10 4 40.5 14.5
16 10 -4 56.29 12.2
16 10 -4 37.8 12.5
-16 -10 3 48.2 8.9
-16 -10 3 45.4 13.8
16 10 -3 28.3 10.7
16 10 -3 32.8 10
-16 -10 2 18.7 11.7
-16 -10 2 10 5.2
16 10 -2 1.6 7.2
16 10 -2 0.7 6.2
-16 -10 1 20.9 6.5
-16 -10 1 11.9 10.5
16 10 -1 40.8 9.9
16 10 -1 25 11.2
-16 -10 0 1.9 4.2
-16 -10 0 -12.1 7.6
16 10 0 1.2 7.2
16 10 0 3.8 5.7
-16 -10 -1 25.6 11.8
-16 -10 -1 30.1 8.2
16 10 1 44.1 12.7
16 10 1 16.2 7.5
-16 -10 -2 0.9 5.2
16 10 2 1.1 7
16 10 2 5.4 4.8
-16 -10 -3 32.8 8.7
16 10 3 40.8 9.7
16 10 3 29.6 11.3
16 10 3 53.39 10.9
-16 -10 -4 53.49 10.6
16 10 4 58.69 11.1
16 10 4 24.8 8.9
16 10 4 44.1 13.7
-16 -10 -5 10.5 6.9
16 10 5 12.3 6.5
16 10 5 18.8 8.8
16 10 5 20.5 11.4
-16 -10 -6 37 10.2
16 10 6 14.2 8.3
16 10 6 29.3 11.4
-16 -9 7 32.2 10.1
16 9 -6 5.3 8.4
-16 -9 5 3.4 8.9
16 9 -5 8 7.4
16 9 -5 15.1 7.8
-16 -9 4 17.9 5.1
-16 -9 4 18.5 11.4
16 9 -4 16.3 7.9
16 9 -4 29.1 11.1
-16 -9 3 50.09 8.8
-16 -9 3 49.99 14.9
16 9 -3 57.19 11.1
16 9 -3 52.99 13.6
-16 -9 2 56.59 15.3
-16 -9 2 50.89 8.9
16 9 -2 36.3 12.1
16 9 -2 52.89 10.7
-16 -9 1 125.59 15.5
-16 -9 1 140.89 23.2
16 9 -1 165.18 19
16 9 -1 120.99 20.3
-16 -9 0 7.8 8.7
-16 -9 0 9.3 5.1
16 9 0 3.3 5.1
16 9 0 13.1 8.7
-16 -9 -1 173.38 18.3
-16 -9 -1 123.39 22.3
16 9 1 146.39 18.1
16 9 1 166.48 24.1
-16 -9 -2 31.4 8.5
16 9 2 67.39 15.2
16 9 2 33.4 8.4
16 9 2 55.99 10.3
-16 -9 -3 35.2 8.9
16 9 3 52.29 13.1
16 9 3 42 9.9
16 9 3 36.8 8.9
-16 -9 -4 20.6 7.4
16 9 4 17.3 9.4
16 9 4 20.8 7.7
16 9 4 15.8 6.5
-16 -9 -5 11.1 6.5
16 9 5 21.4 8.5
16 9 5 34 11.9
16 9 5 23.6 7.2
-16 -9 -6 -3 5.3
16 9 6 2.4 7.8
16 9 6 -2.8 5.5
-16 -9 -7 32.9 9.8
16 9 7 25.8 9.7
16 9 7 23.9 11.5
-16 -8 8 71.69 14.8
-16 -8 7 4 5.8
16 8 -6 92.39 17.3
-16 -8 5 2.2 9.7
16 8 -5 1.5 5.5
16 8 -5 26 10.2
-16 -8 4 116.69 12.3
-16 -8 4 106.49 21.5
16 8 -4 118.79 19.3
16 8 -4 76.69 13.1
-16 -8 3 19.1 5.2
-16 -8 3 20.9 10.9
16 8 -3 14.4 6.6
16 8 -3 15.1 9
-16 -8 2 9.8 4.7
-16 -8 2 3.9 8.4
16 8 -2 9 7.1
16 8 -2 22.3 7.3
-16 -8 1 9.6 8.5
-16 -8 1 4.6 4.6
16 8 -1 -0.2 5.1
16 8 -1 0.9 5
-16 -8 0 94.89 17.8
-16 -8 0 94.89 12.8
16 8 0 74.79 12.2
16 8 0 82.89 16.1
-16 -8 -1 3.8 4.8
-16 -8 -1 8.4 8.5
16 8 1 -0.5 5.4
16 8 1 0.3 4.4
16 8 1 0.1 4
-16 -8 -2 6.3 5.4
16 8 2 4.9 4.9
16 8 2 7.8 6.3
16 8 2 3.6 4.6
-16 -8 -3 19.1 7
16 8 3 20.1 6.9
16 8 3 23.7 7.7
16 8 3 18.4 9
-16 -8 -4 109.49 14.9
16 8 4 90.59 13.2
16 8 4 91.99 13.9
16 8 4 86.59 16.8
-16 -8 -5 13.6 7.1
16 8 5 3.2 4.6
16 8 5 4.8 7
16 8 5 3.2 5.7
-16 -8 -6 111.59 15.4
16 8 6 86.29 17.5
16 8 6 106.99 16.2
16 8 6 92.09 17.5
-16 -8 -7 5.5 6.8
16 8 7 -1.3 6.1
16 8 7 -0.4 6.1
16 8 8 64.39 14.1
16 8 8 85.99 18.3
-16 -7 8 3.5 5.8
-16 -7 7 -0.3 4.8
16 7 -6 25.4 10.7
16 7 -5 9 6.4
16 7 -5 8.7 7.4
-16 -7 4 61.29 15.8
-16 -7 4 73.99 13.2
-16 -7 4 66.39 8.6
16 7 -4 55.59 13.9
16 7 -4 66.09 11.7
-16 -7 3 83.09 16
-16 -7 3 64.89 9.4
-16 -7 3 63.39 16.2
16 7 -3 87.89 16.3
16 7 -3 67.99 11.9
-16 -7 2 23.6 6.2
-16 -7 2 38.2 12.8
16 7 -2 14.2 6.7
16 7 -2 19.7 8.5
-16 -7 1 65.99 14.9
-16 -7 1 64.39 10.1
16 7 -1 70.99 14.2
16 7 -1 73.59 11.7
16 7 -1 65.39 9.1
-16 -7 0 147.49 21.5
-16 -7 0 165.88 17.6
16 7 0 152.98 17.8
16 7 0 164.78 14.9
16 7 0 132.39 20.4
-16 -7 -1 69.59 10.4
-16 -7 -1 70.49 15.4
16 7 1 59.79 13.1
16 7 1 61.39 9.6
16 7 1 60.29 10.6
-16 -7 -2 24.8 9.5
-16 -7 -2 9.2 5.8
16 7 2 16.1 6.1
16 7 2 23 6.6
16 7 2 16 8.4
-16 -7 -3 60.29 10.7
16 7 3 58.39 10.5
16 7 3 73.39 11.5
16 7 3 60.09 13.6
-16 -7 -4 84.99 12.6
16 7 4 70.29 14.6
16 7 4 63.99 10.8
16 7 4 59.89 11.4
-16 -7 -5 2 5.8
16 7 5 9.8 7.8
16 7 5 6.6 4.7
16 7 5 8.2 6.1
-16 -7 -6 15.5 7.3
16 7 6 12.5 6.9
16 7 6 2.7 6.1
16 7 6 6.8 4.9
16 7 6 12.5 7.1
-16 -7 -7 -3.8 6.6
16 7 7 5.2 6.9
16 7 7 -4.4 5.9
16 7 8 7.8 7.4
-16 -6 9 1.5 7.6
-16 -6 9 6.5 7.1
-16 -6 8 20.6 8.5
-16 -6 8 7.5 6.7
-16 -6 7 3.1 5.7
-16 -6 7 -2.3 5.4
16 6 -7 8.8 8.1
-16 -6 6 9.3 6.5
16 6 -6 -3.7 6.2
-16 -6 5 97.79 14.4
16 6 -5 57.19 10.9
16 6 -5 67.09 14.5
-16 -6 4 7.4 5.2
-16 -6 4 0.9 6.6
-16 -6 4 -2.8 5
-16 -6 4 4.7 3
16 6 -4 -0.6 4.4
16 6 -4 -4.6 4.7
-16 -6 3 44.2 13.7
-16 -6 3 40.3 7.3
-16 -6 3 52.69 10.2
-16 -6 3 56.99 13
16 6 -3 42 11.2
16 6 -3 44 8.8
-16 -6 2 106.09 18.7
-16 -6 2 92.99 12.8
-16 -6 2 76.09 10.8
-16 -6 2 94.79 18
16 6 -2 61.09 13.7
16 6 -2 105.29 13.6
16 6 -2 86.89 10.6
-16 -6 1 12.8 5.3
-16 -6 1 8.2 8
16 6 -1 9.3 5.5
16 6 -1 29.1 9.9
16 6 -1 20.5 5.2
-16 -6 0 -8.6 6
-16 -6 0 -0.2 3.7
16 6 0 -2.4 3.3
16 6 0 3.3 3.3
16 6 0 3.4 5.2
-16 -6 -1 21.9 6.7
-16 -6 -1 16.5 8.9
16 6 1 18 5.3
16 6 1 25.2 8.9
16 6 1 21.3 6.5
-16 -6 -2 74.49 11.7
-16 -6 -2 113.19 18.4
16 6 2 89.99 12.4
16 6 2 52.39 12.9
16 6 2 87.09 11.8
-16 -6 -3 39.6 9
16 6 3 48.8 9.2
16 6 3 45.8 11.6
16 6 3 45.8 8.8
-16 -6 -4 7.4 5.4
16 6 4 4.9 5.5
16 6 4 10.7 4.9
16 6 4 5 5.6
-16 -6 -5 58.59 11.1
16 6 5 76.39 11.1
16 6 5 66.09 12.7
16 6 5 81.79 15
16 6 5 76.49 15.1
-16 -6 -6 -2.6 5.5
16 6 6 4 5.7
16 6 6 4.9 5.6
16 6 6 14 6.7
16 6 6 13.6 4.6
-16 -6 -7 9 8.3
16 6 7 8.9 6.9
16 6 7 3.1 6.5
16 6 8 -4.6 6
16 6 9 0.2 6.9
-16 -5 9 11.8 8.2
-16 -5 9 24.1 10.6
-16 -5 8 7.7 7.9
-16 -5 8 3.3 6.8
-16 -5 7 16.4 6.9
-16 -5 7 23.7 9.1
16 5 -7 13.9 8.9
-16 -5 6 9.6 6.7
16 5 -6 8.7 7.6
-16 -5 5 15.9 7.4
16 5 -5 27.8 8
16 5 -5 10.6 8.3
-16 -5 4 54.69 7.4
-16 -5 4 56.19 10.9
-16 -5 4 58.49 11.1
16 5 -4 48.5 12.1
16 5 -4 78.89 11.3
-16 -5 3 28.1 9.8
-16 -5 3 39.3 9
-16 -5 3 51.29 7.5
-16 -5 3 44.9 10.5
16 5 -3 34.3 10
16 5 -3 29.5 7.6
-16 -5 2 52.99 13.6
-16 -5 2 36.7 11.4
-16 -5 2 50.49 8.1
-16 -5 2 50.19 9.8
16 5 -2 42.4 11
16 5 -2 43 8.7
-16 -5 1 14.2 5.6
-16 -5 1 9.4 4.7
-16 -5 1 16.2 9.3
16 5 -1 6.9 6.2
16 5 -1 20.1 6
-16 -5 0 35 10.3
-16 -5 0 39.2 8.1
-16 -5 0 55.49 9.4
16 5 0 50.09 8.9
16 5 0 35.8 10.3
16 5 0 45.7 8
-16 -5 -1 9.2 5.6
-16 -5 -1 5.6 6.5
16 5 1 29.1 7
16 5 1 10.4 5
16 5 1 14.8 7.1
-16 -5 -2 50.89 9.5
-16 -5 -2 49.7 12.7
16 5 2 45 11.2
16 5 2 36.6 7.4
16 5 2 49.8 9.1
-16 -5 -3 30.3 8.1
-16 -5 -3 40.2 11
16 5 3 34.4 9.7
16 5 3 26.2 7.2
16 5 3 31.7 7.4
-16 -5 -4 66.29 11.1
16 5 4 65.79 10.3
16 5 4 57.79 12.9
16 5 4 54.79 10.2
-16 -5 -5 21.2 7.7
16 5 5 11 7.6
16 5 5 23.1 9
16 5 5 16.2 6.9
16 5 5 20.2 6.1
-16 -5 -6 25.7 8.1
16 5 6 18.9 7.5
16 5 6 9.8 6.6
16 5 6 17.5 8.1
16 5 6 8.7 4.2
16 5 7 22.1 8.9
16 5 7 7.7 6.1
16 5 7 2.8 5.5
16 5 8 8.3 7
16 5 9 26.6 10
-16 -4 10 10.5 9.4
-16 -4 9 19.3 8.7
-16 -4 9 35.6 11.3
-16 -4 8 12.5 7.5
-16 -4 8 -2.7 5.1
-16 -4 7 20.1 8.3
-16 -4 7 21.4 7.6
16 4 -7 21.6 9.5
-16 -4 6 42.5 10.5
16 4 -6 51.39 13.5
-16 -4 5 130.49 14.2
-16 -4 5 150.78 17.8
16 4 -5 119.29 15.8
16 4 -5 124.39 19.4
-16 -4 4 24.6 8
-16 -4 4 39.9 9.3
-16 -4 4 29.8 5.2
16 4 -4 37.6 8.2
16 4 -4 16.7 8.8
-16 -4 3 214.58 17.5
-16 -4 3 204.08 22.5
-16 -4 3 217.38 19.9
16 4 -3 247.38 27.5
16 4 -3 208.38 19
-16 -4 2 126.79 14.6
-16 -4 2 128.49 13.6
-16 -4 2 120.59 19.4
-16 -4 2 138.79 21.3
16 4 -2 88.79 16.2
16 4 -2 112.69 14.1
-16 -4 1 30.8 12
-16 -4 1 20.1 6.2
-16 -4 1 24.8 10.7
-16 -4 1 30.2 6.9
16 4 -1 29.8 7.5
16 4 -1 19.3 7.7
-16 -4 0 34.3 7.5
-16 -4 0 48.6 11.5
-16 -4 0 30.7 7
16 4 0 33.8 7.5
16 4 0 30.8 9.4
16 4 0 31.6 6.5
-16 -4 -1 37.4 10.6
-16 -4 -1 20.5 6.8
-16 -4 -1 31.8 6.5
16 4 1 28.1 6.6
16 4 1 29.4 6.2
16 4 1 34.8 9.8
-16 -4 -2 111.19 16.7
-16 -4 -2 118.49 14.5
16 4 2 107.59 16.9
16 4 2 106.69 13.1
16 4 2 116.39 13.8
-16 -4 -3 163.88 18.2
-16 -4 -3 182.18 21.8
16 4 3 182.68 22.6
16 4 3 214.08 17.7
16 4 3 172.58 17.2
-16 -4 -4 28.7 8
16 4 4 21.9 8.7
16 4 4 26.4 7.3
16 4 4 32 9.6
16 4 4 18.5 5.9
-16 -4 -5 151.08 17.7
16 4 5 139.29 20.1
16 4 5 165.08 14.7
16 4 5 134.99 19
16 4 5 117.49 16.5
-16 -4 -6 64.79 11.2
16 4 6 37.4 7
16 4 6 35.2 9.1
16 4 6 53.99 12.1
16 4 6 40.6 10.5
16 4 7 19.7 8.5
16 4 7 11.8 6.2
16 4 7 14.7 6.3
16 4 8 3.3 5.9
16 4 9 25.7 9.5
-16 -3 10 1 6.5
-16 -3 9 9 6.8
-16 -3 9 4.2 7
-16 -3 8 0.2 5.7
-16 -3 8 3.4 7.2
16 3 -8 -5.4 8.7
-16 -3 7 33 9.8
-16 -3 7 32.1 8.8
16 3 -7 19.7 9.7
-16 -3 6 18 7.4
16 3 -6 13.1 7.6
-16 -3 5 15 5
-16 -3 5 10.1 6.5
16 3 -5 23.7 9
-16 -3 4 15.3 6.3
-16 -3 4 21.9 4.6
-16 -3 4 20.9 7.8
16 3 -4 19.7 9.2
-16 -3 3 99.19 10.9
-16 -3 3 78.69 12
-16 -3 3 89.79 15.5
16 3 -3 70.09 14
-16 -3 2 3.5 3.4
-16 -3 2 7 7.7
-16 -3 2 1.7 4.6
16 3 -2 3.9 5.7
16 3 -2 1.5 4.1
-16 -3 1 19.9 9.2
-16 -3 1 21.4 9.6
-16 -3 1 16.9 5.5
-16 -3 1 20.9 6
16 3 -1 22.1 8
16 3 -1 13.6 5.4
-16 -3 0 60.29 9.3
-16 -3 0 57.39 12.2
-16 -3 0 57.39 9.2
16 3 0 62.29 9.6
16 3 0 74.49 13.8
-16 -3 -1 18.2 6
-16 -3 -1 8 6.7
-16 -3 -1 22.2 5.6
16 3 1 16.7 5.5
16 3 1 17.4 6.9
16 3 1 25.7 5.8
-16 -3 -2 5.4 6
-16 -3 -2 7.1 4
-16 -3 -2 3.1 4.8
16 3 2 9.5 4.6
16 3 2 1 4.9
16 3 2 5.2 3.5
-16 -3 -3 84.09 13.7
-16 -3 -3 57.79 10.3
16 3 3 80.09 13.6
16 3 3 56.89 12.1
16 3 3 63.99 9.9
16 3 3 71.89 10.3
-16 -3 -4 16.3 6.4
-16 -3 -4 20.6 7.9
16 3 4 25.1 7
16 3 4 11.1 6.6
16 3 4 21.8 8
16 3 4 15.2 5.1
-16 -3 -5 18.2 6.9
16 3 5 25.7 7.2
16 3 5 17.8 7.3
16 3 5 11.3 4.4
16 3 5 18 7.6
-16 -3 -6 13.1 6.9
16 3 6 30 8.5
16 3 6 15.8 7
16 3 6 15.7 4.9
16 3 6 20.1 7.6
16 3 7 23 7.4
16 3 7 28 8.9
16 3 7 24.4 7.3
16 3 8 2.5 5.8
16 3 9 1.2 5.9
16 3 10 6.4 7.4
-16 -2 10 13 8
-16 -2 9 -2 5.3
-16 -2 8 76.39 14.6
-16 -2 8 157.68 22.8
16 2 -8 123.09 20.7
-16 -2 7 40.9 10.5
-16 -2 7 32.7 8.7
16 2 -7 24.8 9.8
-16 -2 6 85.29 14.3
16 2 -6 113.79 19.2
-16 -2 5 96.59 15.1
-16 -2 5 92.59 10.8
16 2 -5 93.29 16.8
-16 -2 4 230.58 21.6
-16 -2 4 236.08 17.6
-16 -2 4 237.88 22.3
16 2 -4 228.88 27.6
-16 -2 3 172.58 14.6
-16 -2 3 159.88 18.2
-16 -2 3 176.98 20.2
16 2 -3 169.88 22.4
-16 -2 2 124.59 14.9
-16 -2 2 123.49 13.8
-16 -2 2 148.09 21.2
16 2 -2 123.99 18.2
-16 -2 1 75.49 10.9
-16 -2 1 111.99 18.1
-16 -2 1 117.19 13.2
16 2 -1 65.89 13.1
-16 -2 0 218.88 18.2
-16 -2 0 258.47 22.9
-16 -2 0 195.48 23.9
-16 -2 0 192.88 17.4
16 2 0 196.58 17.8
16 2 0 145.49 21.3
-16 -2 -1 112.09 16.4
-16 -2 -1 79.09 10.6
-16 -2 -1 72.29 11
16 2 1 74.09 10.7
16 2 1 78.89 14.2
-16 -2 -2 123.19 16.5
-16 -2 -2 117.39 13.9
-16 -2 -2 105.99 11.7
16 2 2 102.89 12.9
16 2 2 90.69 15.2
16 2 2 131.19 14.2
-16 -2 -3 161.08 17.1
-16 -2 -3 160.78 19.1
16 2 3 169.28 15.5
16 2 3 166.48 20.7
16 2 3 121.89 19.8
16 2 3 163.58 15.1
-16 -2 -4 195.98 19.6
-16 -2 -4 210.78 19.3
16 2 4 186.98 21.9
16 2 4 178.98 22.5
16 2 4 227.58 18.4
16 2 4 228.58 19.5
-16 -2 -5 96.29 13.3
16 2 5 127.79 17.1
16 2 5 96.89 11.8
16 2 5 83.49 12.9
16 2 5 82.19 14.3
-16 -2 -6 110.29 14
16 2 6 80.49 14.5
16 2 6 97.39 11.1
16 2 6 101.89 15.9
16 2 6 113.09 15.1
16 2 6 94.39 15
16 2 7 20.4 6.8
16 2 7 7.4 5.5
16 2 7 34.5 8.4
16 2 8 107.79 16.6
16 2 9 5.8 5.7
16 2 10 1.3 6.8
-16 -1 10 2.1 7.2
-16 -1 9 37.9 10.9
-16 -1 8 11.2 7.4
16 1 -8 6.5 8.4
-16 -1 7 184.68 22.5
16 1 -7 218.48 27.1
-16 -1 6 44 8
-16 -1 6 35.3 9.4
16 1 -6 16 8.6
-16 -1 5 257.77 21.6
-16 -1 5 279.07 24.8
16 1 -5 297.67 28.5
-16 -1 4 179.58 13.5
-16 -1 4 163.58 17.9
-16 -1 4 136.09 18.2
16 1 -4 173.38 24
-16 -1 3 383.86 30.4
-16 -1 3 374.06 32.4
-16 -1 3 404.06 27.5
16 1 -3 324.87 33.1
-16 -1 2 26.2 8.2
-16 -1 2 33.6 7.6
-16 -1 2 15.1 4.8
16 1 -2 26.2 9
-16 -1 1 228.08 25.4
-16 -1 1 232.08 20.3
-16 -1 1 243.48 20.1
16 1 -1 268.57 25.4
-16 -1 0 39.6 12.9
-16 -1 0 48.3 8.4
-16 -1 0 47.6 8.7
16 1 0 49 11
-16 -1 -1 200.28 20.2
-16 -1 -1 216.98 17.2
-16 -1 -1 162.08 18
16 1 1 184.78 22.6
-16 -1 -2 16.4 5.9
-16 -1 -2 19.4 5.4
-16 -1 -2 3.8 6.3
16 1 2 12.4 6.9
16 1 2 26.8 6.3
16 1 2 14.5 6.3
-16 -1 -3 265.77 22.8
-16 -1 -3 236.38 21.4
16 1 3 227.38 25.1
16 1 3 245.58 23.8
16 1 3 259.17 21.2
16 1 3 250.87 20.8
-16 -1 -4 148.79 19.2
-16 -1 -4 143.79 16.4
16 1 4 115.29 15
16 1 4 165.38 20
16 1 4 130.99 19.1
16 1 4 140.99 14.8
-16 -1 -5 250.17 22.4
16 1 5 283.87 24.8
16 1 5 260.17 20.8
16 1 5 234.08 24.9
16 1 5 254.37 22.7
-16 -1 -6 25.9 7.9
16 1 6 25.5 8.3
16 1 6 17.3 6.7
16 1 6 41.4 10
16 1 6 47.1 12.9
16 1 6 27 5.6
16 1 7 175.88 18.7
16 1 7 240.58 24.7
16 1 7 196.68 19
16 1 8 11.5 6.3
16 1 9 22.7 9.2
16 1 10 1.7 6.6
-16 0 10 15.5 8.1
-16 0 9 4.9 6.2
-16 0 8 23.6 8.8
16 0 -8 17.4 10.4
-16 0 7 68.39 13.2
16 0 -7 59.19 14.9
-16 0 6 15.2 7.3
16 0 -6 4.1 7.6
-16 0 5 56.29 11.3
-16 0 5 35.9 7.4
16 0 -5 47.5 13.1
-16 0 4 84.29 13.3
-16 0 4 93.09 13.8
-16 0 4 102.29 9.1
16 0 -4 78.49 16
-16 0 3 532.55 42.9
-16 0 3 616.34 41.7
-16 0 3 569.84 38.2
16 0 -3 480.25 44.4
-16 0 2 38.9 9.4
-16 0 2 65.99 10.1
-16 0 2 43.7 7.5
16 0 -2 56.59 13.4
-16 0 1 82.79 10.7
-16 0 1 105.39 12.5
-16 0 1 65.09 13.7
16 0 -1 77.59 14.5
-16 0 0 3.3 6.3
-16 0 0 1.5 4.2
-16 0 0 6.4 4.3
16 0 0 8.3 6.3
-16 0 -1 90.59 11.2
-16 0 -1 63.09 10.2
16 0 1 68.69 13.2
-16 0 -2 27.4 6.1
-16 0 -2 26.5 7
16 0 2 29.5 8.5
16 0 2 27.3 8.9
-16 0 -3 422.56 30.6
-16 0 -3 362.06 29.3
16 0 3 380.06 28.4
16 0 3 358.96 31.8
16 0 3 375.66 29.1
16 0 3 352.96 33.2
-16 0 -4 67.89 11.4
16 0 4 97.49 11.6
16 0 4 71.19 13
16 0 4 72.89 10.8
16 0 4 72.89 15.1
-16 0 -5 33.8 8.9
16 0 5 43 7.6
16 0 5 42.7 10
16 0 5 30 7.5
16 0 5 36.7 10.2
-16 0 -6 12.9 6.5
16 0 6 15.2 4.8
16 0 6 10 6.6
16 0 6 11.3 6.3
16 0 6 12.2 6.3
16 0 7 57.49 10.6
16 0 7 87.29 13.6
16 0 7 78.49 12.2
16 0 8 34.2 9.8
16 0 9 7 6.5
16 0 10 28.9 10.3
-16 1 10 -0.6 5.8
-16 1 9 39.7 11.2
16 -1 -9 26.6 12.1
-16 1 8 5.9 6.6
16 -1 -8 2.2 7.5
-16 1 7 182.88 22.5
16 -1 -7 173.08 24.8
-16 1 6 27.3 9.4
16 -1 -6 46.3 12.5
-16 1 5 311.87 25.4
-16 1 5 270.77 22.2
16 -1 -5 219.38 29.3
-16 1 4 142.79 16.2
-16 1 4 113.99 15.9
-16 1 4 130.29 11.6
16 -1 -4 151.48 22.1
-16 1 3 299.87 29.3
-16 1 3 336.97 27.2
-16 1 3 332.27 24.6
16 -1 -3 363.06 32.3
-16 1 2 19.5 5.5
-16 1 2 18.5 6
-16 1 2 13.6 7.5
16 -1 -2 24.7 9.1
-16 1 1 270.47 28.5
-16 1 1 308.27 23.4
16 -1 -1 283.87 28.3
-16 1 0 49.9 13.3
-16 1 0 37.6 7.5
16 -1 0 30.2 10
-16 1 -1 212.08 19
16 -1 1 225.98 25.7
-16 1 -2 30.6 7.3
16 -1 2 10.2 6.2
16 -1 2 14.8 8.2
-16 1 -3 275.77 22
16 -1 3 201.98 24.4
16 -1 3 259.87 23.8
16 -1 3 263.87 21.1
-16 1 -4 123.89 15.1
16 -1 4 114.29 14.2
16 -1 4 122.59 18
16 -1 4 148.19 18.5
16 -1 4 127.39 13.9
-16 1 -5 269.47 22.8
16 -1 5 229.88 25
16 -1 5 268.07 22.6
16 -1 5 262.97 23.9
16 -1 5 267.27 20.9
-16 1 -6 42.4 8.8
16 -1 6 29.6 8.8
16 -1 6 41.4 6.9
16 -1 6 26 8.1
16 -1 6 36.6 8.8
16 -1 7 204.08 22.2
16 -1 7 178.08 18.5
16 -1 7 176.88 18.3
16 -1 8 8.9 5.7
16 -1 9 28.2 9.2
16 -1 10 -0.6 4.9
-16 2 10 6.1 7.5
-16 2 9 0.7 5.7
16 -2 -9 -5.2 7.9
-16 2 8 96.09 16.2
16 -2 -8 88.69 18.2
-16 2 7 33.3 9.8
16 -2 -7 40.2 13.2
-16 2 6 124.89 17.7
16 -2 -6 123.59 21.5
-16 2 5 85.69 13.8
-16 2 5 89.99 12.1
16 -2 -5 135.99 20.7
-16 2 4 221.68 21.9
-16 2 4 216.88 17.1
16 -2 -4 257.77 29.9
-16 2 3 158.08 14.5
-16 2 3 171.08 22.6
16 -2 -3 168.68 23.8
-16 2 2 117.39 13.8
-16 2 2 126.29 20
16 -2 -2 166.68 21.5
-16 2 1 81.99 11
-16 2 1 107.79 16.8
16 -2 -1 73.69 14.8
-16 2 0 208.68 18.5
-16 2 0 216.98 25.3
16 -2 0 199.18 24.5
-16 2 -1 86.39 12
16 -2 1 99.39 16.3
-16 2 -2 126.09 15
16 -2 2 123.29 18.2
-16 2 -3 151.48 16.3
16 -2 3 109.59 18.7
16 -2 3 164.88 19.9
-16 2 -4 254.47 20.5
16 -2 4 206.98 18.9
16 -2 4 230.68 18.8
16 -2 4 181.18 22.4
16 -2 4 205.58 23
-16 2 -5 104.29 13.5
16 -2 5 103.39 15.4
16 -2 5 83.69 11.3
16 -2 5 86.79 12.5
16 -2 5 113.99 18.1
-16 2 -6 92.19 13.5
16 -2 6 105.89 11.1
16 -2 6 94.49 13.3
16 -2 6 83.09 14.1
16 -2 6 83.19 13.8
16 -2 7 36 8.6
16 -2 7 34.4 8.2
16 -2 7 14.9 6.1
16 -2 8 103.99 15.4
16 -2 9 21 8.1
16 -2 10 0.8 6
-16 3 10 7.2 7.5
-16 3 9 10.1 8.4
16 -3 -9 8.1 10.1
-16 3 8 7.6 7.1
16 -3 -8 -3.3 7.4
-16 3 7 27.2 8.8
16 -3 -7 18.6 10.6
-16 3 6 28.2 8.6
16 -3 -6 18.8 9.8
-16 3 5 16.3 6.1
16 -3 -5 20.1 10.3
-16 3 4 6.8 6.8
-16 3 4 16.6 4.3
16 -3 -4 16.2 9.8
-16 3 3 91.89 10.9
-16 3 3 76.69 14.5
16 -3 -3 69.49 15.3
-16 3 2 3.2 4
-16 3 2 -2.7 6
16 -3 -2 9.9 6.9
-16 3 1 15.8 9.7
-16 3 1 14.3 5.6
16 -3 -1 23.7 9.5
-16 3 0 43.7 8.5
16 -3 0 62.59 13.3
-16 3 -1 7.4 4.9
16 -3 1 13 7
-16 3 -2 4.3 4.6
16 -3 2 2.6 5.5
-16 3 -3 86.69 12
16 -3 3 78.39 16.2
16 -3 3 90.89 14.7
-16 3 -4 21.4 7.1
16 -3 4 13.4 7.9
16 -3 4 30.3 8.5
16 -3 4 24.9 6.2
-16 3 -5 26 7
16 -3 5 24.8 5.8
16 -3 5 18.6 5.5
16 -3 5 10.1 6.4
-16 3 -6 24.3 7.7
16 -3 6 13.7 7
16 -3 6 19.4 6.2
16 -3 7 23.8 7.3
16 -3 7 14.2 6.4
16 -3 7 17 6.5
16 -3 8 14 6.6
16 -3 9 8.1 6.7
16 -3 10 -4.6 4.9
-16 4 9 17.8 9.5
16 -4 -9 25.7 12.3
-16 4 8 8 7.1
16 -4 -8 17.5 9.9
-16 4 7 13.6 7.5
16 -4 -7 27.6 12.8
16 -4 -6 45.5 13.4
-16 4 5 145.29 16.7
16 -4 -5 168.18 24.4
-16 4 4 26.5 5.4
-16 4 4 14.2 7.8
16 -4 -4 30.3 11.3
-16 4 3 200.78 23
-16 4 3 184.28 17.1
16 -4 -3 240.58 28.8
-16 4 2 126.59 20.2
-16 4 2 142.19 15
16 -4 -2 104.29 18.9
-16 4 1 25.5 11
-16 4 1 19.3 6.4
16 -4 -1 24.2 10
-16 4 0 36.7 7.8
16 -4 0 36.7 10.8
-16 4 -1 23.6 6.6
16 -4 1 26.5 9.5
-16 4 -2 123.89 14.8
16 -4 2 107.09 16.6
-16 4 -3 205.88 19.1
16 -4 3 204.48 23.7
-16 4 -4 21 6.7
16 -4 4 15.4 5.1
16 -4 4 17.4 8.9
16 -4 4 25.5 8.3
-16 4 -5 126.79 15.7
16 -4 5 127.89 20.2
16 -4 5 165.28 17.2
-16 4 -6 47 9.8
16 -4 6 44.5 7.5
16 -4 6 47.3 8.8
16 -4 6 39 10.5
16 -4 7 18 7.3
16 -4 7 23 7.4
16 -4 7 19.3 6.9
16 -4 8 6.8 6.1
16 -4 9 11 6.5
-16 5 9 13.1 8.7
16 -5 -9 18.4 12.5
16 -5 -8 12.8 10.7
16 -5 -7 -1.3 7.9
16 -5 -6 14.8 9.6
-16 5 5 7.4 6.6
16 -5 -5 15.4 10.3
-16 5 4 53.89 13
-16 5 4 74.09 9.3
16 -5 -4 73.69 16.7
-16 5 3 35.2 11.8
-16 5 3 26.1 6.8
16 -5 -3 29.1 11.1
-16 5 2 71.19 10.6
-16 5 2 45.1 13.5
16 -5 -2 20 11.2
-16 5 1 9 5.1
16 -5 -1 10.7 7.5
-16 5 0 49.4 8.8
16 -5 0 30.3 10.2
-16 5 -1 8.6 5.2
16 -5 1 6.3 6.9
-16 5 -2 47.2 9.1
16 -5 2 36.7 10.6
-16 5 -3 35.2 7.9
16 -5 3 24.5 8.5
-16 5 -4 43.4 9.2
16 -5 4 37.8 10
-16 5 -5 15.3 6.9
16 -5 5 9.5 7
16 -5 5 16.4 5.4
-16 5 -6 7.7 5.8
16 -5 6 3.6 5.7
16 -5 6 13.1 5.2
16 -5 6 20.7 5.5
16 -5 7 16.1 6.3
16 -5 7 8.5 5.8
16 -5 8 8.1 5.4
16 -5 9 16.3 7.8
-16 6 9 11.5 8.3
16 -6 -9 -1.1 10
16 -6 -8 19.1 12.7
16 -6 -7 -0.8 7.8
16 -6 -6 0.7 7.5
-16 6 5 81.19 14.5
16 -6 -5 72.69 17.5
-16 6 4 -0.9 6.2
-16 6 4 0 3.8
16 -6 -4 16 10.5
-16 6 3 37.9 11.7
-16 6 3 57.19 9.2
16 -6 -3 51.59 14.6
-16 6 2 117.99 14
-16 6 2 79.19 19.2
16 -6 -2 95.99 19.3
-16 6 1 14.4 5.6
16 -6 -1 20.3 8.8
-16 6 0 1.6 4.3
16 -6 0 -2.2 6.3
-16 6 -1 18 6.7
16 -6 1 18.1 8.8
-16 6 -2 88.89 13
16 -6 2 79.39 15
-16 6 -3 51.59 10.1
16 -6 3 21.2 8.8
-16 6 -4 5.4 5
-16 6 -5 65.39 11.7
16 -6 5 41.4 11.8
16 -6 5 76.99 10.9
-16 6 -6 5.2 5.5
16 -6 6 8.2 6.7
16 -6 6 -2.3 3.2
16 -6 7 3.6 4.4
16 -7 -8 13.1 12.7
16 -7 -7 -0.3 8.4
16 -7 -6 30.5 13.5
-16 7 5 -3.1 5.8
16 -7 -5 8.1 9.5
-16 7 4 84.79 15.8
-16 7 4 71.29 10.6
16 -7 -4 73.09 18.1
-16 7 3 56.59 14.5
-16 7 3 70.49 11.3
16 -7 -3 91.19 19.3
-16 7 2 29.1 7.7
16 -7 -2 22.2 11.2
-16 7 1 77.49 11.8
16 -7 -1 55.39 14.7
-16 7 0 157.28 17.5
16 -7 0 141.39 22.1
-16 7 -1 59.49 10.4
16 -7 1 62.39 15.1
-16 7 -2 27.8 7.8
16 -7 2 18.8 8.4
16 -7 3 61.09 13.1
-16 7 -4 61.29 11.3
-16 7 -5 9.2 6
16 -7 5 5.4 4.2
-16 7 -6 12.7 7
16 -7 6 18.1 6.2
16 -7 6 5.4 6.7
16 -8 -8 83.59 21.4
16 -8 -7 4.6 11.2
16 -8 -6 95.99 22
-16 8 5 -1.5 7.8
16 -8 -5 11.8 10.9
-16 8 4 128.49 14.9
-16 8 4 113.89 19.6
16 -8 -4 120.99 23.2
-16 8 3 20.4 7.1
16 -8 -3 5.1 8
-16 8 2 4.9 5.5
16 -8 -2 17.8 11.8
-16 8 1 4.5 5.2
16 -8 -1 -6.3 6
-16 8 0 118.49 15.6
16 -8 0 101.69 20
-16 8 -1 1 4.8
16 -8 1 10.9 8.6
-16 8 -2 11.3 5.9
16 -8 2 13 8.4
-16 8 -3 21.5 8
16 -8 3 15.4 7.8
-16 8 -4 131.89 17.9
-16 8 -5 11.1 6.4
16 -8 5 2.5 4
-16 8 -6 115.59 15.8
16 -8 6 92.69 15.4
16 -8 6 76.99 16.1
-16 8 -7 15.7 12.5
16 -8 7 -1.5 7.2
16 -8 8 62.19 14.5
16 -9 -7 17.5 13.7
16 -9 -6 0.6 9.4
16 -9 -5 33.4 14.5
-16 9 4 11.1 6.1
-16 9 4 6.1 9.8
16 -9 -4 9 9.9
-16 9 3 65.49 11.2
16 -9 -3 42.8 14.7
-16 9 2 49.6 10.1
16 -9 -2 41 14.7
-16 9 1 152.68 18.7
16 -9 -1 162.98 25.2
-16 9 0 3.2 5.4
16 -9 0 -4.4 6.2
-16 9 -1 134.39 17.2
16 -9 1 147.39 23.6
-16 9 -2 52.79 10.7
16 -9 2 48.5 13.7
-16 9 -3 38.3 9.8
16 -9 3 49.3 13.4
-16 9 -4 18.1 7.3
-16 9 -5 18 7.4
-16 9 -6 5.4 6.4
-16 9 -7 36.9 13.1
16 -10 -6 0.2 11.5
16 -10 -5 7.1 11.9
-16 10 4 46.4 10
16 -10 -4 51.79 17.9
-16 10 3 61.49 11.2
16 -10 -3 26.9 13.9
-16 10 2 13.8 6.9
16 -10 -2 8.9 9.9
-16 10 1 32.1 9.1
16 -10 -1 8.8 10.1
-16 10 0 6.9 5.7
16 -10 0 5.5 7.6
-16 10 -1 28.5 8.6
16 -10 1 31.2 12.6
-16 10 -2 8.2 6
16 -10 2 0.1 7.2
-16 10 -3 46 10.4
-16 10 -4 40.9 10.5
-16 10 -5 17.6 8.4
-16 10 -6 51.39 12.2
16 -11 -5 113.59 24.6
16 -11 -4 1.8 10.7
-16 11 3 120.19 16.5
16 -11 -3 75.09 19.6
-16 11 2 26.2 8
16 -11 -2 0.6 10
-16 11 1 48.8 11.4
16 -11 -1 54.09 15.6
-16 11 0 12 6.6
16 -11 0 17.2 10.5
-16 11 -1 49.3 11.2
16 -11 1 41.4 14.6
-16 11 -2 1 5.8
16 -11 2 0.4 8.9
-16 11 -3 74.99 13.6
-16 11 -4 18.4 7.9
-16 11 -5 185.58 23.5
16 -12 -4 -5.5 8.8
-16 12 3 -0.9 5.9
16 -12 -3 -5.2 8.7
-16 12 2 62.69 12.5
16 -12 -2 17 13.6
-16 12 1 37.7 10.7
16 -12 -1 32.3 15.4
-16 12 0 44.2 10.5
16 -12 0 18 11.9
-16 12 -1 35.5 10.2
16 -12 1 10.6 11.2
-16 12 -2 41 11.1
16 -12 2 39.8 14
-16 12 -3 -2.1 5.9
-16 12 -4 3.5 6.6
-16 13 1 -12 5.2
16 -13 -1 9.2 10.9
-16 13 0 7 6.9
16 -13 0 4.1 8.5
-16 13 -1 11.5 7.7
16 -13 1 4.1 10.1
-17 -12 3 1 4.7
-17 -12 3 11.9 10.5
17 12 -3 -4.8 6.8
17 12 -3 10.3 10.3
-17 -12 2 17.7 6.9
-17 -12 2 -13.1 9.1
17 12 -2 6.9 9.3
17 12 -2 19.2 9
-17 -12 1 17 12
-17 -12 1 28.3 7.8
17 12 -1 42.6 14
17 12 -1 22.8 9.2
-17 -12 0 41.9 15
-17 -12 0 50.99 10.8
17 12 0 65.29 17.2
17 12 0 70.19 13.5
-17 -12 -1 33.8 8.9
-17 -12 -1 37.6 16.1
17 12 1 28.4 9.7
17 12 1 42.4 14
-17 -12 -2 13 7
17 12 2 8.1 9.8
17 12 2 16.4 8.1
-17 -12 -3 -5.7 5.1
17 12 3 12.9 7.3
17 12 3 2.1 8.8
-17 -11 5 4.4 10.4
17 11 -5 2.5 8.1
17 11 -5 -2 8.8
-17 -11 4 8.9 9.5
17 11 -4 20.7 9.8
17 11 -4 -2 8.8
-17 -11 3 -3 9.7
-17 -11 3 7 5
17 11 -3 8.6 8.4
17 11 -3 -2.5 8
-17 -11 2 2.1 4.7
-17 -11 2 -6.4 9.1
17 11 -2 6.3 8.3
17 11 -2 1 6
-17 -11 1 41.8 15.3
-17 -11 1 49.1 9.8
17 11 -1 66.99 13.2
17 11 -1 56.19 15.4
-17 -11 0 11.2 6.3
-17 -11 0 7.7 12
17 11 0 0.3 7.3
17 11 0 11.6 7.6
-17 -11 -1 62.79 11.3
-17 -11 -1 67.09 17.4
17 11 1 69.29 17.3
17 11 1 57.59 11.9
-17 -11 -2 2.8 6.3
17 11 2 -2.9 4.9
17 11 2 -6 6
-17 -11 -3 -2.5 5.3
17 11 3 7.9 6.5
17 11 3 2.1 6.9
-17 -11 -4 12.9 7.4
17 11 4 11.4 7.2
17 11 4 15.9 10.4
-17 -11 -5 6.4 7
17 11 5 7 6.3
17 11 5 -7.1 6
-17 -10 5 -1.2 8.8
17 10 -5 32.1 12.3
17 10 -5 25.5 10.4
-17 -10 4 -2.3 9.7
17 10 -4 3.8 6.5
17 10 -4 1.8 7
-17 -10 3 24.6 12.7
-17 -10 3 39.6 8
17 10 -3 19.6 10
17 10 -3 18.5 8.8
-17 -10 2 23.3 12.2
-17 -10 2 2.4 4.3
17 10 -2 0.4 6.6
17 10 -2 14.4 7.8
-17 -10 1 64.69 17.6
-17 -10 1 28.6 8
17 10 -1 39.1 12.8
17 10 -1 40.9 10.2
-17 -10 0 -1.3 3.9
-17 -10 0 7.6 9.2
17 10 0 9.9 6.9
17 10 0 -1.8 7.1
-17 -10 -1 42.1 9.6
-17 -10 -1 24.7 12.2
17 10 1 46.3 10.9
17 10 1 47.1 13.6
-17 -10 -2 12.5 6.6
17 10 2 10.7 8
17 10 2 3.4 4.9
-17 -10 -3 45.8 10.2
17 10 3 13.9 9.5
17 10 3 42.2 9.8
-17 -10 -4 2.7 5.1
17 10 4 -0.7 6.1
17 10 4 4.2 6.9
17 10 4 -3.4 4.4
-17 -10 -5 37.2 10.1
17 10 5 31 12.3
17 10 5 20 8.9
17 10 5 41.1 9.7
-17 -10 -6 12.1 8.2
17 10 6 5.4 7.8
17 10 6 17.3 11.1
-17 -9 7 2.9 6.4
17 9 -6 4.9 8.6
-17 -9 5 3.2 9.2
17 9 -5 8.5 7.6
17 9 -5 -7.4 6.3
-17 -9 4 0.2 8.9
-17 -9 4 7.6 5.4
17 9 -4 0.8 7.8
17 9 -4 8.4 7
-17 -9 3 27 13.8
-17 -9 3 31.6 7.2
17 9 -3 41.1 10.7
17 9 -3 20 9.3
-17 -9 2 5.6 9.2
-17 -9 2 19 6.1
17 9 -2 16.3 9.3
17 9 -2 20.6 7.9
-17 -9 1 -4.6 6.7
-17 -9 1 -0.1 3.6
17 9 -1 12.1 6.9
17 9 -1 6.8 7.3
-17 -9 0 9.6 5.3
-17 -9 0 8.9 9.1
17 9 0 4.8 5.7
17 9 0 8.3 7.6
-17 -9 -1 7.3 10
-17 -9 -1 0.7 5.1
17 9 1 -0.8 5
17 9 1 4.8 6.9
-17 -9 -2 16.1 6.8
-17 -9 -2 6.2 9.4
17 9 2 19.1 7.3
17 9 2 8.5 8.1
17 9 2 11.1 6
-17 -9 -3 28.2 8.1
17 9 3 20.7 7.1
17 9 3 31.9 8.6
17 9 3 32.9 11.9
-17 -9 -4 10.6 6.7
17 9 4 15.9 7.1
17 9 4 14.5 6.4
17 9 4 4.4 7.5
-17 -9 -5 0.4 5.7
17 9 5 -1.1 5.9
17 9 5 -0.8 6.3
17 9 5 -3.9 4.6
-17 -9 -6 10.2 7.1
17 9 6 2.2 6.7
17 9 6 3.4 7.3
-17 -9 -7 9.1 7.6
17 9 7 3.6 6
17 9 7 22.8 11.8
-17 -8 7 3.1 6
17 8 -6 -4.9 6.7
17 8 -5 37.3 9.9
17 8 -5 25.5 11
-17 -8 4 18.7 5.1
-17 -8 4 -3.8 8.9
17 8 -4 13.2 6.9
17 8 -4 7.4 8
-17 -8 3 -0.2 7.4
-17 -8 3 15.6 5.1
17 8 -3 14.5 8.4
17 8 -3 6.1 6.3
-17 -8 2 2.5 8.6
-17 -8 2 6.4 4
17 8 -2 2.7 5.3
17 8 -2 -1.1 6
-17 -8 1 -3.8 3.4
-17 -8 1 -3.6 7.3
17 8 -1 3.3 5.7
17 8 -1 1.5 5.8
-17 -8 0 -4.8 3.3
-17 -8 0 2.2 8
17 8 0 -0.3 5.3
17 8 0 6.3 5.2
-17 -8 -1 -9.8 6.4
-17 -8 -1 0.2 4.4
17 8 1 1.3 4.2
17 8 1 -1.1 4.7
17 8 1 -1.5 5.4
-17 -8 -2 13.2 5.7
-17 -8 -2 11.6 8.5
17 8 2 -2 3.9
17 8 2 5.2 6.9
17 8 2 13.6 5.7
-17 -8 -3 16.5 7
17 8 3 7.3 5.5
17 8 3 15.3 8.6
17 8 3 35.9 8.7
-17 -8 -4 18.5 7
17 8 4 6.6 6.6
17 8 4 2.6 5.2
17 8 4 18 6.7
-17 -8 -5 15.3 7.1
17 8 5 25.7 7.1
17 8 5 22.8 8.7
17 8 5 13.7 8.3
-17 -8 -6 1.8 5.9
17 8 6 1.1 6
17 8 6 -5 5.8
-17 -8 -7 29.6 9
17 8 7 19.8 10.7
17 8 7 12.3 8.2
-17 -7 8 5.7 7.2
-17 -7 7 13.9 7.1
17 7 -6 24.8 11.3
17 7 -5 -0.8 6.9
17 7 -5 13.2 7.9
-17 -7 4 14.8 7.4
-17 -7 4 11.7 4.2
-17 -7 4 -1.2 7.3
17 7 -4 10.2 6.8
17 7 -4 7.9 8.4
-17 -7 3 19 12
-17 -7 3 45.2 11
-17 -7 3 59.29 8.9
17 7 -3 39.3 11
17 7 -3 44.6 10.1
-17 -7 2 13.5 5.5
-17 -7 2 14.5 10.1
17 7 -2 14.4 8.1
17 7 -2 29.3 8.6
-17 -7 1 9.8 10.4
-17 -7 1 18.5 6.1
17 7 -1 24.8 7.4
17 7 -1 6.8 4.2
17 7 -1 10.4 7
-17 -7 0 6.5 8.3
-17 -7 0 21.7 6.5
17 7 0 10.6 4.8
17 7 0 12.2 7.7
17 7 0 11.4 5.9
-17 -7 -1 16.3 9.5
-17 -7 -1 16.3 6.3
17 7 1 12.2 5.2
17 7 1 16.8 6.2
17 7 1 16.1 7.9
-17 -7 -2 -1 4.6
-17 -7 -2 8.6 8.7
17 7 2 4.4 4.5
17 7 2 15.7 5.9
17 7 2 14.6 8.3
-17 -7 -3 78.59 12.2
17 7 3 40.2 9.4
17 7 3 53.09 10.3
17 7 3 42.2 11.6
-17 -7 -4 -0.1 5.4
17 7 4 11.9 6.2
17 7 4 2.6 5.4
17 7 4 5.4 5.3
-17 -7 -5 9.3 6.6
17 7 5 0 3.7
17 7 5 10.5 7.9
17 7 5 2.7 5.2
-17 -7 -6 6.6 6.9
17 7 6 22.7 7.4
17 7 6 14.2 7.8
17 7 6 22 9.3
17 7 6 20.6 9.5
-17 -7 -7 22.3 8.6
17 7 7 10.4 7.3
17 7 7 16.3 9.2
17 7 8 0.1 7
-17 -6 8 7.2 7.4
-17 -6 8 13.4 7.8
-17 -6 7 36.4 10.2
-17 -6 7 36.4 11.5
17 6 -7 53.69 14
-17 -6 6 8 7.7
17 6 -6 22.7 9.6
-17 -6 5 82.69 14.2
17 6 -5 97.69 17.2
17 6 -5 100.39 15.2
-17 -6 4 73.49 13.3
-17 -6 4 67.89 8.7
-17 -6 4 71.99 13.4
17 6 -4 73.89 11.8
17 6 -4 67.59 14.4
-17 -6 3 185.08 16.1
-17 -6 3 187.98 21.7
-17 -6 3 197.18 21
-17 -6 3 231.78 30
17 6 -3 154.48 22.8
17 6 -3 155.48 18.8
-17 -6 2 -2 3
-17 -6 2 -3.5 6.9
-17 -6 2 -1.3 5.2
17 6 -2 -3.2 4.9
17 6 -2 2.9 5
17 6 -2 -1 3
-17 -6 1 191.58 16.6
-17 -6 1 107.89 20.7
17 6 -1 171.88 15.4
17 6 -1 137.99 21.8
17 6 -1 210.68 20.6
-17 -6 0 25.5 6.7
-17 -6 0 33.2 12.2
17 6 0 18 5.7
17 6 0 9.4 6.9
17 6 0 20.1 6.8
-17 -6 -1 187.68 24.3
-17 -6 -1 196.68 19.6
17 6 1 180.88 23.1
17 6 1 171.38 19
17 6 1 157.18 16
-17 -6 -2 -1.1 7.4
-17 -6 -2 4.2 5.3
17 6 2 -1.2 3.4
17 6 2 0 5.1
17 6 2 0.1 3.7
-17 -6 -3 200.28 20.3
-17 -6 -3 224.68 26.3
17 6 3 150.18 18.4
17 6 3 161.48 23.2
17 6 3 209.28 20.7
-17 -6 -4 49.3 10.1
17 6 4 76.89 15.1
17 6 4 68.49 11.8
17 6 4 71.49 11.3
-17 -6 -5 112.99 15.1
17 6 5 86.99 14.7
17 6 5 110.99 18.7
17 6 5 110.29 14
-17 -6 -6 14.9 7.3
17 6 6 16.4 7.3
17 6 6 22.3 9.3
17 6 6 17.6 5.7
17 6 6 16.4 7.9
-17 -6 -7 49.2 11.1
17 6 7 27.2 10.4
17 6 7 32.2 9.7
17 6 8 25.5 10.2
-17 -5 9 5.9 7.6
-17 -5 9 15.2 8.4
-17 -5 8 9.5 6.8
-17 -5 8 18.1 7.8
-17 -5 7 8.3 6.8
-17 -5 7 2.2 5.5
17 5 -7 11.3 8.9
-17 -5 6 24.3 9
17 5 -6 11.2 8.6
-17 -5 5 7.9 7
17 5 -5 2.7 6.7
17 5 -5 -1.4 5.6
-17 -5 4 125.99 17
-17 -5 4 109.59 16.1
-17 -5 4 114.79 10.8
17 5 -4 113.19 19.3
17 5 -4 117.39 15.1
-17 -5 3 60.99 13.5
-17 -5 3 77.49 10
-17 -5 3 72.19 12.4
-17 -5 3 85.39 17.2
17 5 -3 76.49 11.5
17 5 -3 63.49 14.1
-17 -5 2 173.38 16.7
-17 -5 2 180.28 26.3
-17 -5 2 280.47 32.3
-17 -5 2 201.78 21.2
17 5 -2 180.78 24.3
17 5 -2 192.78 20.3
-17 -5 1 139.09 15.2
-17 -5 1 116.09 20
-17 -5 1 123.89 15
17 5 -1 154.38 20.9
17 5 -1 101.59 13.9
-17 -5 0 65.09 10.3
-17 -5 0 75.39 14.9
-17 -5 0 79.09 11
17 5 0 73.79 13.9
17 5 0 78.99 11.5
17 5 0 47.8 8.4
-17 -5 -1 122.99 15
-17 -5 -1 141.79 19.9
17 5 1 113.49 14.5
17 5 1 107.19 17.6
17 5 1 107.69 13.6
-17 -5 -2 192.68 23.6
-17 -5 -2 193.18 19.5
17 5 2 173.28 16.9
17 5 2 145.59 21.2
17 5 2 183.78 19.2
-17 -5 -3 71.79 11.4
-17 -5 -3 51.39 12.3
17 5 3 62.69 10.6
17 5 3 90.69 16.3
17 5 3 82.59 12
-17 -5 -4 95.19 13.4
17 5 4 101.09 13.2
17 5 4 108.59 18.2
17 5 4 101.29 14
-17 -5 -5 5.9 5.8
17 5 5 6.8 4.7
17 5 5 5.5 6
17 5 5 0.8 5.3
17 5 5 8.1 7.3
-17 -5 -6 22.1 7.5
17 5 6 21.9 7.7
17 5 6 5.7 6.4
17 5 6 21.3 5.7
17 5 6 26.8 9
-17 -5 -7 16.9 8.3
17 5 7 4.3 5.1
17 5 7 12.6 7.9
17 5 8 11.7 7.8
17 5 9 26 10.3
-17 -4 9 10.2 8.5
-17 -4 9 11.7 8.1
-17 -4 8 8.3 6.8
-17 -4 8 -1 6.1
-17 -4 7 135.89 17.2
-17 -4 7 79.99 14.7
17 4 -7 109.09 18.9
-17 -4 6 39.7 10
17 4 -6 65.39 15.3
-17 -4 5 297.67 26.5
-17 -4 5 298.67 24.9
17 4 -5 246.48 30.7
17 4 -5 326.87 32.1
-17 -4 4 29.9 8.4
-17 -4 4 17.9 7.1
-17 -4 4 17.2 4.4
17 4 -4 29.7 10.9
17 4 -4 17.4 6.5
-17 -4 3 272.67 27.1
-17 -4 3 261.07 21.1
-17 -4 3 308.07 24.7
17 4 -3 252.97 22.8
17 4 -3 266.97 30.6
-17 -4 2 1.3 5
-17 -4 2 8.4 8.5
-17 -4 2 18.4 10
-17 -4 2 4.9 4.3
17 4 -2 6.6 5.8
17 4 -2 13.4 5.9
-17 -4 1 30.4 7.4
-17 -4 1 25 6.5
-17 -4 1 36.4 11.9
17 4 -1 27.9 7.3
17 4 -1 19.5 8.3
-17 -4 0 1.3 4.4
-17 -4 0 0.4 7.1
-17 -4 0 -1.8 4
17 4 0 -2.1 3.3
17 4 0 -1.1 4
17 4 0 0 2.7
-17 -4 -1 39.4 8.3
-17 -4 -1 33.2 6.9
-17 -4 -1 38.2 10
17 4 1 20.5 5.8
17 4 1 46 8.3
17 4 1 29.8 9.2
-17 -4 -2 6.1 7
-17 -4 -2 5.9 5.5
17 4 2 7 4.5
17 4 2 13.7 7.8
17 4 2 9.4 4.8
-17 -4 -3 232.88 22.9
-17 -4 -3 218.98 20.7
17 4 3 225.08 20.5
17 4 3 220.28 19.9
17 4 3 248.48 27.7
-17 -4 -4 18.9 7.2
-17 -4 -4 34.5 10.5
17 4 4 19.2 6.1
17 4 4 13.2 5.9
17 4 4 23.9 8.5
-17 -4 -5 292.27 24.4
17 4 5 271.47 27.5
17 4 5 279.57 26.9
17 4 5 258.87 22.3
17 4 5 241.68 24
-17 -4 -6 42.8 10.1
17 4 6 74.59 14.7
17 4 6 60.29 11.5
17 4 6 45.9 11
17 4 6 54.89 8.7
-17 -4 -7 123.49 18.8
17 4 7 123.39 18.8
17 4 8 0.7 5.6
17 4 9 9.4 8.1
-17 -3 9 5.9 6.9
-17 -3 8 39.2 10.7
-17 -3 8 74.79 13.8
17 3 -8 37.3 13
-17 -3 7 -4.2 5.2
-17 -3 7 -0.1 4.6
17 3 -7 3 7.1
-17 -3 6 52.19 11.3
17 3 -6 57.89 14.3
-17 -3 5 118.49 16.8
-17 -3 5 130.39 14
17 3 -5 140.09 20.8
-17 -3 4 142.29 17.8
-17 -3 4 123.89 11.9
-17 -3 4 159.28 17.5
17 3 -4 151.38 22.3
-17 -3 3 7.8 7.2
-17 -3 3 10.8 4.1
-17 -3 3 3.6 4.9
17 3 -3 1.9 6
-17 -3 2 253.77 23.1
-17 -3 2 345.57 26.2
-17 -3 2 311.27 30.4
17 3 -2 281.57 28.8
17 3 -2 342.57 25.6
-17 -3 1 45.6 15.8
-17 -3 1 40.7 8.1
-17 -3 1 43.7 8.4
-17 -3 1 40.4 12.1
17 3 -1 44.3 8.4
17 3 -1 38.1 10.5
-17 -3 0 309.57 24.5
-17 -3 0 312.27 24.9
17 3 0 309.37 29
17 3 0 303.97 24.9
-17 -3 -1 36.8 7.1
-17 -3 -1 36.2 7.8
-17 -3 -1 23.8 9.1
17 3 1 42.1 8
17 3 1 27.9 7.3
17 3 1 21 8.7
-17 -3 -2 211.28 20.6
-17 -3 -2 217.38 22.8
-17 -3 -2 268.57 19.7
17 3 2 219.38 19.9
17 3 2 226.18 26.5
17 3 2 259.37 20.9
-17 -3 -3 13.3 7.5
-17 -3 -3 11.6 6
17 3 3 2 3.9
17 3 3 3.1 5.4
17 3 3 4.6 3.8
-17 -3 -4 168.88 17.5
-17 -3 -4 163.98 19.7
17 3 4 152.78 17.5
17 3 4 109.39 18.1
17 3 4 139.99 15.3
17 3 4 98.99 16.7
-17 -3 -5 150.68 17.2
17 3 5 158.18 21
17 3 5 132.19 17.1
17 3 5 165.88 16.3
17 3 5 121.69 19.1
-17 -3 -6 50.89 10.4
17 3 6 66.49 14
17 3 6 51.49 11.8
17 3 6 56.99 11.8
17 3 6 69.09 9.4
-17 -3 -7 -5.9 6.3
17 3 7 2.2 4.4
17 3 7 -2.1 4.7
17 3 7 0 4.2
17 3 8 50.29 11.7
17 3 9 6.7 7.1
-17 -2 10 25.7 9.7
-17 -2 9 26.7 9.8
-17 -2 8 9.1 7.5
17 2 -8 14.7 9.6
-17 -2 7 52.09 10.6
-17 -2 7 38.2 11.1
17 2 -7 47.6 13.9
-17 -2 6 1 5.6
17 2 -6 1.6 7.1
-17 -2 5 105.29 12.4
-17 -2 5 132.59 17.3
17 2 -5 103.89 18.2
-17 -2 4 41.2 6.3
-17 -2 4 51.49 10.9
-17 -2 4 51.99 10.5
17 2 -4 27.7 11
-17 -2 3 8.3 5.7
-17 -2 3 17.1 8.3
-17 -2 3 12.3 4.5
17 2 -3 4 6.4
-17 -2 2 263.87 21.5
-17 -2 2 242.88 25.5
-17 -2 2 207.68 18.8
17 2 -2 176.98 24.3
-17 -2 1 67.79 10.1
-17 -2 1 52.89 9.7
-17 -2 1 66.29 15.1
17 2 -1 51.79 12
-17 -2 0 126.89 14.4
-17 -2 0 129.69 14.5
-17 -2 0 116.79 17.2
17 2 0 95.39 13.1
17 2 0 127.29 19.2
-17 -2 -1 39.6 7.9
-17 -2 -1 67.79 13.6
-17 -2 -1 56.19 9.4
17 2 1 70.49 10.2
17 2 1 46.5 11
-17 -2 -2 168.58 14.9
-17 -2 -2 170.98 17.8
-17 -2 -2 178.58 21.2
17 2 2 163.68 16
17 2 2 144.99 20.7
17 2 2 174.38 18
-17 -2 -3 12.3 6.2
-17 -2 -3 10 7.2
17 2 3 10.3 4.7
17 2 3 11.7 5
17 2 3 20.4 7.6
-17 -2 -4 52.99 9.6
-17 -2 -4 35.3 9.9
17 2 4 45.6 8.3
17 2 4 41.8 8.5
17 2 4 27.2 9.5
17 2 4 41.9 10.8
-17 -2 -5 75.49 12.4
17 2 5 98.49 16
17 2 5 110.19 14.8
17 2 5 110.09 12.7
17 2 5 97.59 16
-17 -2 -6 4.5 6.1
17 2 6 9.7 6
17 2 6 13.7 7.3
17 2 6 10.7 6
17 2 6 7.4 3.9
-17 -2 -7 24.7 10.2
17 2 7 34.4 9.4
17 2 7 44.2 9.8
17 2 7 45 10.2
17 2 8 14.1 7.3
17 2 9 1.3 5.5
17 2 10 37.4 11.9
-17 -1 10 16.8 9.3
-17 -1 9 0.5 6
-17 -1 8 19.7 9.2
17 1 -8 7.8 9.3
-17 -1 7 83.59 14.5
17 1 -7 74.49 16.9
-17 -1 6 139.49 18.8
17 1 -6 149.69 22.2
-17 -1 5 100.79 12.3
-17 -1 5 114.49 16.6
17 1 -5 109.79 19.4
-17 -1 4 87.29 14.5
-17 -1 4 99.09 14.4
-17 -1 4 106.19 9.7
17 1 -4 94.59 18.4
-17 -1 3 57.09 12.4
-17 -1 3 47.2 10.1
-17 -1 3 56.29 7.8
17 1 -3 42.7 12.1
-17 -1 2 2 5.4
-17 -1 2 2.3 3.1
-17 -1 2 -0.5 4.4
17 1 -2 2.4 4.9
-17 -1 1 36.5 8.3
-17 -1 1 41.9 13.8
-17 -1 1 36.1 7.7
17 1 -1 23.1 8.7
-17 -1 0 -3.2 3.7
-17 -1 0 -5.8 3.4
17 1 0 6.4 5.7
-17 -1 -1 30 7
-17 -1 -1 23.5 6.5
-17 -1 -1 20.9 8.4
17 1 1 16.6 7.3
17 1 1 21.7 6.3
-17 -1 -2 0.6 4.7
-17 -1 -2 1.3 5.8
-17 -1 -2 1.6 3.8
17 1 2 -0.1 5.1
17 1 2 -0.9 3
-17 -1 -3 38.5 8.6
-17 -1 -3 54.69 11.1
17 1 3 35.1 7.6
17 1 3 50.99 9
17 1 3 45.4 11.1
-17 -1 -4 64.89 11.1
17 1 4 69.89 14.9
17 1 4 86.79 10.9
17 1 4 77.29 13.5
17 1 4 69.19 11
-17 -1 -5 92.29 13.7
17 1 5 74.79 14.3
17 1 5 91.39 15.4
17 1 5 117.59 13.1
17 1 5 95.39 13.6
-17 -1 -6 132.29 17.2
17 1 6 166.28 19.5
17 1 6 149.88 14.2
17 1 6 165.88 19.2
-17 -1 -7 82.19 17.9
17 1 7 58.89 12.2
17 1 7 61.29 11.5
17 1 8 12 6.7
17 1 9 9.8 7.2
17 1 10 20.9 9.1
-17 0 10 6.6 8
-17 0 9 1.6 6.1
-17 0 8 5.3 6.7
17 0 -8 7.4 9.4
-17 0 7 -3.8 5.2
17 0 -7 -2 7.7
-17 0 6 0.2 6.1
17 0 -6 2.3 8.3
-17 0 5 1.1 5.6
-17 0 5 -0.3 3.7
17 0 -5 -0.5 6.2
-17 0 4 0.7 5.3
-17 0 4 0.1 5.2
-17 0 4 0.2 2.8
17 0 -4 3.3 6.6
-17 0 3 2.4 5.3
-17 0 3 0.2 3.2
-17 0 3 -0.9 4.3
17 0 -3 8.3 6.3
-17 0 2 8 5.4
-17 0 2 -3.1 5.2
-17 0 2 -3.3 2.9
17 0 -2 0.4 5
-17 0 1 8.3 5
-17 0 1 7.7 4.4
-17 0 1 0.2 7.7
17 0 -1 0.9 5.2
-17 0 0 1 4
-17 0 0 0.5 4.2
17 0 0 4.6 5.9
-17 0 -1 2 4.2
-17 0 -1 0.6 3.9
17 0 1 -5.3 3.4
-17 0 -2 -0.4 3.6
-17 0 -2 -0.1 4.3
17 0 2 -7.7 3.5
-17 0 -3 -3.5 5.7
-17 0 -3 -2.2 4.3
17 0 3 -2 3
17 0 3 -1.9 3.7
17 0 3 0 3.6
-17 0 -4 -1.9 4.9
17 0 4 -4.1 4.7
17 0 4 -6.4 3.9
17 0 4 -0.1 3.6
17 0 4 -4.8 2.8
-17 0 -5 -9.6 4.1
17 0 5 -2.2 4.8
17 0 5 -0.3 4.8
17 0 5 0.2 3.5
17 0 5 -1.4 3.4
-17 0 -6 -6.9 4.9
17 0 6 3.8 4.5
17 0 6 0.6 3.2
17 0 6 -1 5
17 0 7 -0.9 4
17 0 7 0.7 4.2
17 0 7 -2.4 4.4
17 0 8 1.1 4.9
17 0 9 3.6 5.7
17 0 10 14.5 8
-17 1 10 11.4 8.5
-17 1 9 1.8 6.1
17 -1 -9 -2.2 8.8
-17 1 8 14.2 9
17 -1 -8 7 9.4
-17 1 7 53.69 13.1
17 -1 -7 81.69 16.7
-17 1 6 180.78 20.9
17 -1 -6 97.59 18.9
-17 1 5 108.99 15.7
-17 1 5 117.59 14.5
17 -1 -5 77.19 16.8
-17 1 4 88.29 10
-17 1 4 80.89 13.5
-17 1 4 89.29 13.9
17 -1 -4 105.29 18.6
-17 1 3 52.39 13
-17 1 3 37.6 7.1
-17 1 3 47.5 9.6
17 -1 -3 36.9 11.4
-17 1 2 1.7 5.3
-17 1 2 5.6 3.8
-17 1 2 -1.5 6.9
17 -1 -2 1.3 6.4
-17 1 1 48 8.6
-17 1 1 39.6 13.6
-17 1 1 46.9 8.9
17 -1 -1 26.2 10
-17 1 0 0.2 4.3
17 -1 0 -4.1 5.3
-17 1 -1 12.1 5.6
17 -1 1 27.9 8.9
-17 1 -2 -3.4 4.1
17 -1 2 2.7 5.6
-17 1 -3 41.3 9
17 -1 3 42.6 8
17 -1 3 39.4 9.6
-17 1 -4 76.99 11.8
17 -1 4 81.19 15.4
17 -1 4 84.19 11
17 -1 4 73.29 11.3
17 -1 4 81.89 14.1
-17 1 -5 102.59 14.1
17 -1 5 103.19 18.2
17 -1 5 101.09 13.8
17 -1 5 94.79 15.4
17 -1 5 93.29 11.9
-17 1 -6 163.78 18.4
17 -1 6 139.89 13.5
17 -1 6 145.39 19.6
17 -1 6 147.49 18.1
17 -1 7 77.79 12.9
17 -1 7 102.69 14.5
17 -1 7 59.79 11.1
17 -1 8 1.9 5.1
17 -1 9 3.1 5.5
17 -1 10 21.3 9.2
-17 2 10 27.1 10.8
-17 2 9 10.4 8.2
17 -2 -9 7 9.6
-17 2 8 38.2 11.4
17 -2 -8 17.6 10.4
-17 2 7 38.4 11.1
17 -2 -7 24.7 11.3
-17 2 6 4.6 5.9
17 -2 -6 9.4 8.1
-17 2 5 112.99 14.4
-17 2 5 114.09 16.2
17 -2 -5 101.59 19.5
-17 2 4 54.59 10.4
-17 2 4 44.4 6.6
-17 2 4 29.4 8.7
17 -2 -4 65.19 14.7
-17 2 3 9.1 4.6
-17 2 3 13.8 8.2
17 -2 -3 19 9.2
-17 2 2 227.88 20.2
-17 2 2 248.98 27.1
17 -2 -2 258.27 29.7
-17 2 1 68.79 10.2
-17 2 1 61.39 14
17 -2 -1 64.19 14.2
-17 2 0 123.69 14.4
17 -2 0 113.69 18.3
-17 2 -1 53.69 9.4
17 -2 1 60.79 13.3
-17 2 -2 139.69 16.4
17 -2 2 168.88 21.1
-17 2 -3 17.2 6.3
17 -2 3 12.4 6.6
-17 2 -4 59.49 10.3
17 -2 4 50.59 9.2
17 -2 4 43.4 10.4
17 -2 4 41.6 8.2
17 -2 4 47.4 12.2
-17 2 -5 104.39 14
17 -2 5 92.69 20.7
17 -2 5 97.79 11.8
17 -2 5 109.29 13.5
17 -2 5 58.49 13.3
-17 2 -6 4.2 5.8
17 -2 6 12.9 6.8
17 -2 6 16.3 4.7
17 -2 6 8 4.5
17 -2 7 24.4 7.9
17 -2 7 55.89 11.2
17 -2 7 41.4 9.5
17 -2 8 32 9.6
17 -2 9 13.5 8
17 -2 10 41.3 11.6
-17 3 9 6 8.2
17 -3 -9 -5 8.9
-17 3 8 66.49 14.1
17 -3 -8 54.29 15.2
-17 3 7 -2.7 5.1
17 -3 -7 1.6 7.3
-17 3 6 70.29 13.3
17 -3 -6 54.19 15.5
-17 3 5 143.79 16.2
17 -3 -5 152.78 23.5
-17 3 4 174.98 22.4
-17 3 4 152.78 14
17 -3 -4 183.98 26.2
-17 3 3 12.5 9.3
-17 3 3 -2 3.3
17 -3 -3 19 8.7
-17 3 2 256.27 23.2
-17 3 2 340.77 30.9
17 -3 -2 298.17 30
-17 3 1 31.9 14.9
17 -3 -1 33 11.7
-17 3 0 316.57 25.9
17 -3 0 328.77 30.8
-17 3 -1 28.1 7
17 -3 1 27 9.4
-17 3 -2 242.78 21.5
17 -3 2 247.08 28.5
-17 3 -3 15.2 6
17 -3 3 9.3 6.6
-17 3 -4 147.79 17.9
17 -3 4 157.48 20.8
17 -3 4 158.88 24.1
17 -3 4 171.58 18.2
-17 3 -5 157.08 18.5
17 -3 5 148.59 15.8
17 -3 5 132.89 20.6
17 -3 5 165.68 17.8
-17 3 -6 53.39 10.7
17 -3 6 62.59 8.7
17 -3 6 44 10.8
17 -3 6 54.79 10.3
17 -3 7 1 4.5
17 -3 7 5.7 5.4
17 -3 7 4.1 5.2
17 -3 8 46.9 10.6
17 -3 9 5.2 6.3
-17 4 9 0.5 6.6
17 -4 -9 7.7 10.1
-17 4 8 8.3 7.7
17 -4 -8 1.4 9.3
-17 4 7 123.69 19.1
17 -4 -7 132.69 23.6
17 -4 -6 55.99 15.2
-17 4 5 295.17 26.7
17 -4 -5 343.57 38.9
-17 4 4 16.3 5
-17 4 4 17.2 8.6
17 -4 -4 28.7 11.5
-17 4 3 208.08 24.8
-17 4 3 243.18 20.1
17 -4 -3 299.87 33.4
-17 4 2 14.9 9.8
-17 4 2 6.3 5
17 -4 -2 5 7.1
-17 4 1 25.3 7
17 -4 -1 22.4 10.4
-17 4 0 -2 4
17 -4 0 -3.9 4.5
-17 4 -1 40.7 8.4
17 -4 1 28.6 9.9
-17 4 -2 2.8 4.6
17 -4 2 -1.8 4.6
-17 4 -3 261.57 22.5
17 -4 3 224.88 26.9
-17 4 -4 23.7 7.3
17 -4 4 22 6.1
17 -4 4 14.4 7.4
-17 4 -5 279.97 24.5
17 -4 5 276.17 28.2
17 -4 5 263.17 23
-17 4 -6 57.59 11.4
17 -4 6 48.9 9.8
17 -4 6 53.89 8.3
17 -4 6 47.9 11.4
-17 4 -7 121.19 21.5
17 -4 7 116.89 15.7
17 -4 8 2.3 5.2
17 -4 9 6.1 6
-17 5 9 22.3 9.9
17 -5 -9 12.8 10.9
-17 5 8 9.6 8.3
17 -5 -8 24.4 11.4
17 -5 -7 10 10
17 -5 -6 18.8 11.7
-17 5 5 13.3 7.8
17 -5 -5 7.7 10.2
-17 5 4 115.79 18.5
-17 5 4 129.39 13.5
17 -5 -4 114.69 22.3
-17 5 3 81.69 16.7
-17 5 3 85.09 11.7
17 -5 -3 55.29 15
-17 5 2 160.08 23.4
-17 5 2 197.08 17.8
17 -5 -2 215.48 27.6
-17 5 1 164.38 17.6
17 -5 -1 120.19 20.7
-17 5 0 83.49 11.8
17 -5 0 41.7 11.7
-17 5 -1 159.98 17.4
17 -5 1 115.89 18.7
-17 5 -2 197.18 20.3
17 -5 2 153.48 21.8
-17 5 -3 54.79 10.5
17 -5 3 78.59 14.1
-17 5 -4 96.59 13.8
17 -5 4 113.69 17.5
-17 5 -5 6.7 5.5
17 -5 5 4.8 6
17 -5 5 1.2 3.8
-17 5 -6 18.2 7.3
17 -5 6 17.7 6.2
17 -5 6 14.8 7.6
17 -5 6 16.9 5.5
-17 5 -7 12.7 8.3
17 -5 7 7.8 5.1
17 -5 8 17.2 6.5
17 -5 9 10.5 6.6
17 -6 -8 28.7 15.1
17 -6 -7 43.9 14.6
17 -6 -6 16.8 10.7
-17 6 5 118.59 18.4
17 -6 -5 105.79 22.6
-17 6 4 74.09 14.9
-17 6 4 78.19 10.2
17 -6 -4 69.29 17.3
-17 6 3 189.28 19
-17 6 3 186.78 25.7
17 -6 -3 161.58 26
-17 6 2 2.5 4.3
17 -6 -2 -1.6 7.3
-17 6 1 201.68 20.7
17 -6 -1 169.48 25.3
-17 6 0 29.4 7.6
17 -6 0 25.6 10.3
-17 6 -1 177.88 20.2
17 -6 1 192.98 25.8
-17 6 -2 -0.9 4
17 -6 2 5.1 6.6
-17 6 -3 169.08 19.1
17 -6 3 166.68 22.1
-17 6 -4 68.99 12.2
-17 6 -5 100.99 14.7
17 -6 5 104.59 13.4
-17 6 -6 11.8 6.8
17 -6 6 23.8 6.9
17 -6 6 14.3 8
-17 6 -7 65.59 14.8
17 -6 7 41.8 9.5
17 -6 8 28.7 12.9
17 -7 -8 1.1 11
17 -7 -7 16.9 11.7
17 -7 -6 16.5 11.5
-17 7 5 4.9 7.8
17 -7 -5 -3.7 7.7
-17 7 4 12.4 9.8
-17 7 4 9.8 5.1
17 -7 -4 5.4 9.6
-17 7 3 51.39 9.5
-17 7 3 46.8 17.2
17 -7 -3 45.2 14.8
-17 7 2 16.9 6.5
17 -7 -2 8.6 10
-17 7 1 15 6.4
17 -7 -1 32.7 11.3
-17 7 0 10.9 6.3
17 -7 0 5.6 7
-17 7 -1 7.3 5.9
17 -7 1 -8.7 5.3
-17 7 -2 23.5 7.6
17 -7 2 25 9.7
-17 7 -3 37.7 9.2
17 -7 3 57.29 12.4
-17 7 -4 21.3 7.2
-17 7 -5 12.8 6.6
17 -7 5 3.4 4.2
-17 7 -6 29 8.8
17 -7 6 20.8 6.4
17 -7 6 23.1 10.3
-17 7 -7 18.4 8.8
17 -8 -7 28.1 14.2
17 -8 -6 -2.9 8.4
17 -8 -5 22.7 13.8
-17 8 4 20.3 11
-17 8 4 26 7.2
17 -8 -4 19.9 12.1
-17 8 3 27.9 7.7
17 -8 -3 30.7 13.6
-17 8 2 6.3 5.1
17 -8 -2 8 9.9
-17 8 1 0.2 4.5
17 -8 -1 1.8 8.4
-17 8 0 -0.1 4.5
17 -8 0 4.5 8.2
-17 8 -1 0.5 5.2
17 -8 1 6.1 7.3
-17 8 -2 1 5.4
17 -8 2 -2.1 7
-17 8 -3 15.9 6.8
17 -8 3 18.9 8.9
-17 8 -4 19.8 6.9
-17 8 -5 17.9 7.8
17 -8 5 24.7 6.6
-17 8 -6 -0.5 5.5
-17 8 -7 2.2 6.6
17 -9 -7 15.1 13.1
17 -9 -6 11.8 12.4
17 -9 -5 -1.4 10
-17 9 4 8.1 5.8
-17 9 4 0 11.2
17 -9 -4 2.9 10.3
-17 9 3 28.3 8.4
17 -9 -3 39 15.2
-17 9 2 14 6.6
17 -9 -2 12.1 11.4
-17 9 1 3.4 5.2
17 -9 -1 -4.2 7.4
-17 9 0 11.9 7
17 -9 0 5.7 7.5
-17 9 -1 0.9 5.3
17 -9 1 0.7 6.5
-17 9 -2 16.4 7.7
17 -9 2 15 8.8
-17 9 -3 27.3 8.9
-17 9 -4 1 6
-17 9 -5 1.8 6.1
-17 9 -6 0.6 6.6
-17 9 -7 7.5 7.4
17 -10 -6 19.7 13
17 -10 -5 28.3 14.3
17 -10 -4 -5.9 8.3
-17 10 3 32.7 9.6
17 -10 -3 48.9 16.1
-17 10 2 5.9 6
17 -10 -2 5.1 8.8
-17 10 1 34.9 9.4
17 -10 -1 59.69 18.1
-17 10 0 5.8 5.7
17 -10 0 -7.8 6
-17 10 -1 36.1 9.8
17 -10 1 14.7 10.7
-17 10 -2 5.1 6.3
17 -10 2 4.7 8.6
-17 10 -3 13.1 7.1
-17 10 -4 -1.2 5
-17 10 -5 12.6 7.4
-17 10 -6 5.6 6.8
17 -11 -5 -5.4 10.3
17 -11 -4 5.1 12.1
-17 11 3 -2 5.9
17 -11 -3 3.1 11.5
-17 11 2 -6.5 4.9
17 -11 -2 -2.8 8.7
-17 11 1 82.09 14.1
17 -11 -1 77.09 20
-17 11 0 8.2 6.6
17 -11 0 9.4 9.1
-17 11 -1 60.99 13.2
17 -11 1 69.79 18.2
-17 11 -2 -1.9 4.8
17 -11 2 -1.4 7.9
-17 11 -3 4.9 7.3
-17 11 -4 4.9 6.7
-17 11 -5 -2.7 5.9
-17 12 3 3.9 7.2
17 -12 -3 -6.2 9.5
-17 12 2 13.4 8
17 -12 -2 6.7 11.6
-17 12 1 31.2 10.3
17 -12 -1 29.5 14.8
-17 12 0 51.19 12
17 -12 0 39.3 15.9
-17 12 -1 29.6 10
17 -12 1 32.9 13.5
-17 12 -2 34.3 10.2
17 -12 2 1.5 10.1
-17 12 -3 2.2 6.3
-18 -12 1 2.8 11.1
-18 -12 1 2.5 5.4
18 12 -1 -5.9 5.2
18 12 -1 1.6 7.6
-18 -12 0 -1.8 5.1
-18 -12 0 -1 11.4
18 12 0 2.8 8.3
18 12 0 2.3 7.1
-18 -12 -1 -7.9 9.7
-18 -12 -1 4.3 6
18 12 1 3.8 6.3
18 12 1 -1.4 7.5
-18 -11 4 12.2 12.5
18 11 -4 19 10
18 11 -4 10 9.5
-18 -11 3 0.9 11.7
-18 -11 3 3.9 5.3
18 11 -3 -1.5 8.3
18 11 -3 1 7.3
-18 -11 2 31.1 15.9
-18 -11 2 26.1 7.3
18 11 -2 46.7 11.7
18 11 -2 22.9 11.8
-18 -11 1 6 11
-18 -11 1 10.2 6
18 11 -1 11.3 9.2
18 11 -1 11.4 7.6
-18 -11 0 19.2 7.4
-18 -11 0 14.5 13.2
18 11 0 24.8 12.4
18 11 0 14 8.4
-18 -11 -1 4.2 5.8
-18 -11 -1 -10.6 10.3
18 11 1 3.9 6.1
18 11 1 4.4 7.9
-18 -11 -2 43.4 10.6
-18 -11 -2 8.7 11.4
18 11 2 23.2 8.1
18 11 2 8.5 8.2
-18 -11 -3 0.1 6.2
18 11 3 11.4 7.2
18 11 3 -4 6.6
-18 -11 -4 6.5 6.4
18 11 4 8.6 9.1
18 11 4 -6.7 5
-18 -10 5 18 14.2
18 10 -5 31.2 13.2
18 10 -5 38.9 11.9
-18 -10 4 110.49 23.8
18 10 -4 88.69 19.4
18 10 -4 156.68 20.3
-18 -10 3 19 6.2
-18 -10 3 10.9 12.7
18 10 -3 13.8 8.4
18 10 -3 27.3 11.8
-18 -10 2 91.59 12.7
-18 -10 2 113.19 24.6
18 10 -2 77.29 16.9
18 10 -2 79.29 14.5
-18 -10 1 13.5 10.7
-18 -10 1 -0.5 4.6
18 10 -1 8.4 8.9
18 10 -1 4.7 6.3
-18 -10 0 101.09 21.4
-18 -10 0 91.09 13.6
18 10 0 84.59 18.4
18 10 0 110.79 16.5
-18 -10 -1 4.3 5.4
-18 -10 -1 3.9 9.9
18 10 1 10.4 9.2
18 10 1 -3.9 4.4
-18 -10 -2 92.19 14.3
-18 -10 -2 114.19 21.6
18 10 2 100.09 15.3
18 10 2 70.89 16.6
-18 -10 -3 10.9 7.3
18 10 3 22.4 7.7
18 10 3 20.6 9.8
-18 -10 -4 109.29 16.1
18 10 4 122.59 16.7
18 10 4 74.99 14.7
18 10 4 118.69 21.5
-18 -10 -5 40.2 10.8
18 10 5 33.4 10.5
18 10 5 43.1 10.5
18 10 5 40.9 13.8
18 9 -6 -0.9 8.4
-18 -9 5 86.29 20.1
18 9 -5 67.59 13.6
18 9 -5 63.19 16.4
-18 -9 4 16.6 12.7
18 9 -4 30.5 9.4
18 9 -4 27.1 12.4
-18 -9 3 81.89 11.5
-18 -9 3 52.49 17.4
18 9 -3 72.69 17.6
18 9 -3 100.79 15.9
-18 -9 2 8.8 5.3
-18 -9 2 0.3 9.4
18 9 -2 6.9 7.1
18 9 -2 13.2 9.9
-18 -9 1 12.9 11.2
-18 -9 1 10.1 5.4
18 9 -1 5.1 8.2
18 9 -1 15.9 7.6
-18 -9 0 24.9 7.4
-18 -9 0 10.9 9.7
18 9 0 15.9 7.3
18 9 0 4 7
-18 -9 -1 8.6 6
-18 -9 -1 12.8 10.6
18 9 1 1.2 5.8
18 9 1 8.4 6.5
-18 -9 -2 0.6 9.4
-18 -9 -2 4.8 5.4
18 9 2 8.8 6.2
18 9 2 -2.3 6.3
18 9 2 4.1 5.5
-18 -9 -3 92.29 14
18 9 3 64.59 12.2
18 9 3 69.59 12.7
18 9 3 69.49 15.8
-18 -9 -4 36.1 9.4
18 9 4 32.7 8.9
18 9 4 39 13.3
18 9 4 46.9 11.5
-18 -9 -5 69.59 12.6
18 9 5 60.09 12.5
18 9 5 87.29 13.2
18 9 5 51.09 14.4
-18 -9 -6 9.8 7.7
18 9 6 16.6 9.1
18 9 6 9.4 8.7
18 8 -6 15.4 10.6
18 8 -5 -2.4 7
18 8 -5 7.8 7.8
-18 -8 4 -0.6 4.1
-18 -8 4 -2.6 7.9
18 8 -4 2.4 6.7
18 8 -4 -2.5 5.9
-18 -8 3 18.8 5.7
-18 -8 3 12.7 13.2
18 8 -3 20.6 7.8
18 8 -3 10.4 9.3
-18 -8 2 23 6.1
-18 -8 2 16.8 12.2
18 8 -2 1 6.1
18 8 -2 10.7 6.6
-18 -8 1 -5.1 8.6
-18 -8 1 8.5 5.1
18 8 -1 1.2 5.2
18 8 -1 -2.5 6.4
-18 -8 0 -2.3 4
-18 -8 0 10.6 10.1
18 8 0 -3.9 4.9
18 8 0 -2 6.3
-18 -8 -1 20.5 11.3
-18 -8 -1 9 5.7
18 8 1 9.6 6.2
18 8 1 12.7 5.9
18 8 1 12.8 7.8
-18 -8 -2 20.7 7.4
-18 -8 -2 6.9 10.5
18 8 2 21.1 7.5
18 8 2 18.8 7
18 8 2 26.1 10.2
-18 -8 -3 12.1 9.8
-18 -8 -3 25.1 8
18 8 3 11 6.3
18 8 3 19.9 9.3
18 8 3 17 6.5
-18 -8 -4 -0.2 5.7
18 8 4 -0.2 5.4
18 8 4 6.9 7.2
18 8 4 -2.4 4.2
-18 -8 -5 7.7 6.8
18 8 5 -6.7 5.1
18 8 5 3 7.1
18 8 5 3.6 5
-18 -8 -6 42.9 10.4
18 8 6 23.6 9.5
18 8 6 31.4 12.1
-18 -8 -7 24.5 9.3
18 8 7 11.9 8.1
18 8 7 18.8 10.8
-18 -7 8 7 8.1
18 7 -6 57.69 15
18 7 -5 101.39 19.5
18 7 -5 98.09 18.2
-18 -7 4 6.6 9.1
-18 -7 4 4.9 5.9
-18 -7 4 3.8 3.5
18 7 -4 3.5 5.8
18 7 -4 3 7.9
-18 -7 3 160.28 27.2
-18 -7 3 169.88 16.8
18 7 -3 128.89 21.2
18 7 -3 134.09 18
-18 -7 2 27 13.3
-18 -7 2 35.3 7.8
18 7 -2 39.7 11.8
18 7 -2 47.8 10.5
-18 -7 1 81.79 11.7
-18 -7 1 46.6 14.8
18 7 -1 93.29 13.3
18 7 -1 67.49 14.3
18 7 -1 75.79 13.9
-18 -7 0 79.89 11.9
-18 -7 0 78.99 16.7
18 7 0 83.29 12.8
18 7 0 57.89 9.7
18 7 0 76.59 15.7
-18 -7 -1 58.79 15.1
-18 -7 -1 73.19 11.3
18 7 1 63.19 14.7
18 7 1 71.99 10.9
18 7 1 57.39 11.1
-18 -7 -2 47.8 9.5
-18 -7 -2 47 13.8
18 7 2 23.4 9.6
18 7 2 45.5 9.6
18 7 2 51.89 9.6
-18 -7 -3 120.19 19.9
-18 -7 -3 130.59 16.3
18 7 3 104.99 18.9
18 7 3 139.89 17.1
18 7 3 145.39 17.3
-18 -7 -4 7.3 6.5
18 7 4 11.6 5.8
18 7 4 3.6 5.1
18 7 4 0.1 5.9
-18 -7 -5 80.59 13.4
18 7 5 67.09 13.3
18 7 5 94.29 13.1
18 7 5 85.29 17.5
-18 -7 -6 82.19 13.3
18 7 6 60.79 15.2
18 7 6 45.6 12.1
18 7 6 49.99 13.8
-18 -7 -7 60.89 12.4
18 7 7 62.29 15.1
18 7 7 41.7 11.3
-18 -6 8 15.6 8
-18 -6 8 9.9 8.4
-18 -6 7 13.7 7.8
-18 -6 7 29.4 8.7
18 6 -7 33.7 12.1
-18 -6 6 -2 5.7
18 6 -6 -6.4 5.9
-18 -6 5 -7.7 5.9
18 6 -5 5.2 7.9
18 6 -5 -0.7 6.5
-18 -6 4 63.29 8.3
-18 -6 4 79.59 13.4
-18 -6 4 46.7 11
18 6 -4 51.69 13.6
18 6 -4 42.9 10.4
-18 -6 3 6.8 6
-18 -6 3 2.7 3.7
-18 -6 3 7.2 6.7
-18 -6 3 4.7 8.9
18 6 -3 -7.1 5.9
18 6 -3 3.3 5.1
-18 -6 2 13.4 5.1
-18 -6 2 10 6.3
-18 -6 2 10.6 10.3
18 6 -2 11.8 7.8
18 6 -2 17.1 5.2
18 6 -2 12.1 6
-18 -6 1 86.29 18.9
-18 -6 1 52.89 9.3
18 6 -1 44.1 8
18 6 -1 44.7 12.9
18 6 -1 54.19 10.5
-18 -6 0 5 8.7
-18 -6 0 3.4 4.9
18 6 0 2.3 3.8
18 6 0 4.7 6.3
18 6 0 4.7 5.2
-18 -6 -1 54.49 9.7
-18 -6 -1 43.5 13
18 6 1 55.59 10.1
18 6 1 46.9 8.5
18 6 1 27.6 9.7
-18 -6 -2 17.2 9.8
-18 -6 -2 14.2 6.6
18 6 2 12.3 5.7
18 6 2 6.1 6.8
18 6 2 3 4.6
-18 -6 -3 8.2 8.6
-18 -6 -3 -1.9 5.1
18 6 3 1.6 5.2
18 6 3 4.5 4.6
18 6 3 0.4 4.8
-18 -6 -4 47.1 10
-18 -6 -4 24.8 11.2
18 6 4 74.09 11.6
18 6 4 61.19 14.4
18 6 4 65.39 11.8
-18 -6 -5 -4.1 5.1
18 6 5 -1.4 6
18 6 5 2.1 4.5
18 6 5 0 5.7
-18 -6 -6 10.1 7.2
18 6 6 9.3 7
18 6 6 2.6 6
18 6 6 2 5.2
18 6 6 3 4.5
-18 -6 -7 18.8 8.7
18 6 7 17.3 8.8
18 6 7 28.1 11.6
18 6 8 3.5 7
-18 -5 8 9.8 7.8
-18 -5 8 17 9.1
-18 -5 7 11.4 8.2
-18 -5 7 -2.9 4.1
18 5 -7 6.3 8.2
-18 -5 6 1.7 5.8
18 5 -6 4.9 7.4
-18 -5 5 -0.2 5.6
-18 -5 5 12.5 5.7
18 5 -5 14.8 8.8
18 5 -5 18.2 10.1
-18 -5 4 9 5.4
-18 -5 4 7.4 3.6
-18 -5 4 8.1 6.4
18 5 -4 9.1 7.4
18 5 -4 10.4 6.4
-18 -5 3 14.4 7.1
-18 -5 3 23.8 5.9
-18 -5 3 24.1 9
18 5 -3 16.4 6.7
18 5 -3 15 7.9
-18 -5 2 71.29 11.6
-18 -5 2 66.29 10
-18 -5 2 54.59 15.4
18 5 -2 46.3 12.4
18 5 -2 96.09 13.5
-18 -5 1 7.7 4.6
-18 -5 1 1.4 4.7
-18 -5 1 -0.3 8.1
18 5 -1 -1.7 5.4
18 5 -1 8.2 5.2
-18 -5 0 40 8.3
-18 -5 0 41.1 11.8
-18 -5 0 41.9 8.6
18 5 0 47.8 12.1
18 5 0 42.8 9.2
18 5 0 39.1 7.7
-18 -5 -1 2.6 5.3
-18 -5 -1 9 7.8
18 5 1 0 5.9
18 5 1 2.9 4.8
18 5 1 4 4.2
-18 -5 -2 60.49 14.5
-18 -5 -2 61.59 11
18 5 2 53.99 9.5
18 5 2 62.49 13.4
18 5 2 61.49 10.2
-18 -5 -3 8.7 8.7
-18 -5 -3 13.7 6.8
18 5 3 27.5 9.6
18 5 3 22.4 7.3
18 5 3 24.9 7.2
-18 -5 -4 -2.4 4.8
-18 -5 -4 13.6 9.3
18 5 4 6.9 7
18 5 4 1.5 4.7
18 5 4 0.8 4
-18 -5 -5 18.5 7.7
18 5 5 6 4.7
18 5 5 2.9 6.2
18 5 5 12.6 6.2
-18 -5 -6 -1.7 5.8
18 5 6 3.2 3.9
18 5 6 16.8 7.4
18 5 6 4.9 5.6
18 5 6 5.7 7
-18 -5 -7 5.8 6.9
18 5 7 7.3 7.3
18 5 7 7 6.2
18 5 8 7.2 7.8
-18 -4 9 -1.7 6.8
-18 -4 8 37.3 10.4
-18 -4 8 31.1 9.9
-18 -4 7 7.3 6.8
-18 -4 7 20.9 7.8
18 4 -7 11.3 9.9
-18 -4 6 6.8 6.3
18 4 -6 6.7 8
-18 -4 5 39.6 10.3
-18 -4 5 36.2 8
18 4 -5 37.5 13.4
18 4 -5 46.2 12.9
-18 -4 4 3.9 5
-18 -4 4 18.8 7.1
18 4 -4 6.9 8.1
18 4 -4 10.5 5.8
-18 -4 3 11.4 7.5
-18 -4 3 9.4 5.9
-18 -4 3 16.3 5
18 4 -3 -0.2 6.1
18 4 -3 5.1 5.2
-18 -4 2 -0.5 7.6
-18 -4 2 2.5 4.9
-18 -4 2 -4.9 6.2
-18 -4 2 0.7 3.6
18 4 -2 2.9 6.1
18 4 -2 -2.5 4.2
-18 -4 1 5 4.6
-18 -4 1 0.7 3.7
-18 -4 1 4.4 7.3
18 4 -1 7.5 6.5
18 4 -1 3 4.5
-18 -4 0 14.8 9.8
-18 -4 0 5.6 5.4
-18 -4 0 10.4 5.6
18 4 0 8.1 4.4
18 4 0 0.5 5.6
18 4 0 11.9 6.1
-18 -4 -1 1.1 4.3
-18 -4 -1 4.5 4.8
-18 -4 -1 0.1 7.6
18 4 1 -2.6 3.1
18 4 1 0.4 3.8
18 4 1 4.9 5.7
-18 -4 -2 21.8 7.4
-18 -4 -2 -7.2 6.6
18 4 2 -4.6 3.4
18 4 2 -0.7 3.1
18 4 2 1.5 5.2
-18 -4 -3 3 5.5
-18 -4 -3 3.4 7.5
18 4 3 3.4 4.1
18 4 3 1.3 4.1
18 4 3 -2.4 4.6
-18 -4 -4 5.6 5.5
-18 -4 -4 1.2 7.2
18 4 4 3.4 4.3
18 4 4 10.6 6.2
18 4 4 -1.6 5.8
-18 -4 -5 40.1 13
-18 -4 -5 24.4 8.2
18 4 5 53.79 9.4
18 4 5 36.8 11.4
18 4 5 33.9 9.4
-18 -4 -6 5.9 6.6
18 4 6 10.5 5
18 4 6 -1.1 5
18 4 6 12.6 7.4
18 4 6 9.2 6.3
-18 -4 -7 0.9 6.5
18 4 7 14.5 7.3
18 4 8 24.9 9.1
18 4 9 10 8
-18 -3 9 12.7 9
-18 -3 8 -2.6 5.6
18 3 -8 -4.5 7.7
-18 -3 7 42.1 10
-18 -3 7 53.29 12.2
18 3 -7 29.3 11.6
-18 -3 6 0.9 5.6
18 3 -6 4.2 7.6
-18 -3 5 76.99 11.7
-18 -3 5 94.89 14.7
18 3 -5 78.89 16.7
-18 -3 4 104.89 15.1
-18 -3 4 78.39 9.2
-18 -3 4 79.69 13.5
18 3 -4 50.69 13.2
-18 -3 3 33.3 6.4
-18 -3 3 22.8 9.4
-18 -3 3 29.1 7.9
18 3 -3 -0.9 6.1
-18 -3 2 89.19 11.7
-18 -3 2 134.99 15.5
-18 -3 2 105.19 18.1
18 3 -2 104.19 14.3
18 3 -2 83.59 17
-18 -3 1 2.3 4.3
-18 -3 1 7.7 4.9
-18 -3 1 17.6 9.7
18 3 -1 3.7 5.9
18 3 -1 -0.4 4.4
-18 -3 0 70.09 10.7
-18 -3 0 55.49 9.5
-18 -3 0 86.49 14.9
18 3 0 65.39 13.7
18 3 0 55.59 10.1
-18 -3 -1 5.7 4.6
-18 -3 -1 15.3 8.6
-18 -3 -1 7.2 5.3
18 3 1 4 4.2
18 3 1 9.5 6.9
18 3 1 1.2 3.8
-18 -3 -2 104.99 16.9
-18 -3 -2 75.59 11.4
18 3 2 78.59 11.5
18 3 2 58.99 10.3
18 3 2 91.39 15.8
-18 -3 -3 16.8 9.1
-18 -3 -3 27.8 7.7
18 3 3 28 9.2
18 3 3 31.1 7.3
18 3 3 21.8 6.5
-18 -3 -4 51.69 10.4
-18 -3 -4 58.79 13
18 3 4 50.69 9
18 3 4 59.49 10.4
18 3 4 77.49 14.5
-18 -3 -5 77.39 12.6
18 3 5 79.79 15.5
18 3 5 68.69 12.3
18 3 5 73.89 11.2
18 3 5 87.59 15.8
-18 -3 -6 4.7 6.5
18 3 6 3.3 4.8
18 3 6 1.5 5.5
18 3 6 2.5 3.6
18 3 6 2.6 5
-18 -3 -7 46.2 10.7
18 3 7 35.8 9.4
18 3 8 2.3 6.1
18 3 9 13.8 8.1
-18 -2 9 -1.8 6
-18 -2 8 20.7 8.9
18 2 -8 0.1 7.5
-18 -2 7 1.2 7.1
18 2 -7 5.4 8.4
-18 -2 6 15.6 8.3
18 2 -6 27.3 11
-18 -2 5 22.3 6.3
-18 -2 5 10 7.2
18 2 -5 30.1 11.3
-18 -2 4 3.6 5.7
-18 -2 4 12.7 4.1
-18 -2 4 12.2 6.7
18 2 -4 0.8 6.9
-18 -2 3 0.3 6.1
-18 -2 3 -0.4 3.2
-18 -2 3 -2.2 4.8
18 2 -3 -4.3 5.1
-18 -2 2 40.8 11.6
-18 -2 2 66.99 11.2
-18 -2 2 65.19 9.3
18 2 -2 51.49 12.5
-18 -2 1 36.6 7.6
-18 -2 1 30.7 7.7
18 2 -1 42.6 10.9
-18 -2 0 2.1 4.5
-18 -2 0 5.2 4.6
-18 -2 0 10.7 8.5
18 2 0 3.7 4.5
18 2 0 -3 4.6
-18 -2 -1 33.9 8.4
-18 -2 -1 67.29 14.2
-18 -2 -1 34.6 7.9
18 2 1 39 8.3
18 2 1 29.8 9.6
-18 -2 -2 53.89 12.7
-18 -2 -2 48.7 9.5
18 2 2 77.29 14.4
18 2 2 55.79 9.6
18 2 2 51.49 9.1
-18 -2 -3 -2.5 4.7
-18 -2 -3 -3.1 6.1
18 2 3 0.3 3.3
18 2 3 -1.8 4.8
18 2 3 -0.3 3.7
-18 -2 -4 -1.7 4.3
18 2 4 5.1 4.5
18 2 4 10.7 6.4
18 2 4 5.8 4.3
-18 -2 -5 31.4 9
18 2 5 14.6 5.5
18 2 5 19.7 8.7
18 2 5 15.9 6.3
18 2 5 9.6 6.6
-18 -2 -6 21.9 7.8
18 2 6 17.5 8.1
18 2 6 17 5.3
18 2 6 14.7 7.5
18 2 6 28.4 7.9
-18 -2 -7 8.8 6.8
18 2 7 -0.8 4.2
18 2 7 0.6 5.1
18 2 8 14.6 7.6
18 2 9 4.4 6.2
-18 -1 9 16.2 8.7
-18 -1 8 0.9 6.2
18 1 -8 3.1 7.4
-18 -1 7 61.69 12.9
18 1 -7 81.09 17.9
-18 -1 6 0.4 6.6
18 1 -6 -0.1 6.3
-18 -1 5 59.89 12.2
-18 -1 5 55.89 9.8
18 1 -5 35.5 11.5
-18 -1 4 74.79 13.1
-18 -1 4 66.09 12.4
-18 -1 4 67.09 8.3
18 1 -4 41.6 13
-18 -1 3 183.88 20.7
-18 -1 3 184.78 16.2
-18 -1 3 182.28 21.9
18 1 -3 204.28 26.6
-18 -1 2 126.69 14.5
-18 -1 2 131.09 21.3
-18 -1 2 157.08 17.7
18 1 -2 152.98 22
-18 -1 1 167.58 17.9
-18 -1 1 148.99 16.5
18 1 -1 141.39 21
-18 -1 0 42.8 9.1
-18 -1 0 20.8 6.8
18 1 0 25.8 9.5
-18 -1 -1 110.69 13.9
-18 -1 -1 135.79 15.1
18 1 1 95.39 16.6
18 1 1 112.19 14.1
-18 -1 -2 117.09 13.4
-18 -1 -2 104.79 14.2
-18 -1 -2 96.79 16
18 1 2 87.19 12.1
18 1 2 85.89 15.8
-18 -1 -3 138.29 16.4
-18 -1 -3 129.39 18.3
18 1 3 106.19 14.3
18 1 3 130.09 15.2
18 1 3 162.28 21
-18 -1 -4 43 9.3
18 1 4 35.9 7.8
18 1 4 31.4 10
18 1 4 49.1 9.3
-18 -1 -5 68.39 11.7
18 1 5 38 10.4
18 1 5 39.4 8.8
18 1 5 38 11
18 1 5 54.89 9.1
-18 -1 -6 9.9 6.2
18 1 6 0.2 3.7
18 1 6 3.5 3.8
18 1 6 2.3 5.7
-18 -1 -7 49.6 11.4
18 1 7 60.59 13.5
18 1 7 48.4 11
18 1 8 5.2 6.1
18 1 9 25.3 9.5
-18 0 9 0 7.3
18 0 -9 4.6 10
-18 0 8 44.9 11.8
18 0 -8 47.6 15
-18 0 7 7 7.8
18 0 -7 -4.7 6.8
-18 0 6 362.66 33.9
18 0 -6 456.85 39.7
-18 0 5 254.57 23.8
-18 0 5 238.78 21.5
18 0 -5 229.78 30.8
-18 0 4 1133.99 75.59
-18 0 4 1096.29 76.09
-18 0 4 1120.19 70.39
18 0 -4 933.41 79.09
-18 0 3 37.2 6.9
-18 0 3 40.1 9.9
-18 0 3 37.7 10.7
18 0 -3 26.6 10.3
-18 0 2 334.07 26.4
-18 0 2 336.77 32.8
-18 0 2 353.16 28.5
18 0 -2 326.07 32.3
-18 0 1 34.3 8.6
-18 0 1 68.09 10.1
18 0 -1 66.69 14.1
-18 0 0 203.18 17.8
-18 0 0 182.48 19.1
18 0 0 138.09 21.3
-18 0 -1 43.3 9.1
-18 0 -1 60.69 9.8
18 0 1 15.8 8.3
-18 0 -2 217.08 18.4
-18 0 -2 210.48 21.1
18 0 2 197.68 18.4
18 0 2 175.88 22.9
-18 0 -3 23.6 7.7
18 0 3 37.4 7.7
18 0 3 37.1 10.8
18 0 3 31.1 7.5
-18 0 -4 927.51 60.99
18 0 4 866.31 59.39
18 0 4 869.01 60.39
18 0 4 790.82 62.79
-18 0 -5 259.67 23.9
18 0 5 202.78 23.6
18 0 5 212.18 19.9
18 0 5 185.88 17.8
18 0 5 196.88 23.5
-18 0 -6 365.66 31.4
18 0 6 371.66 28.5
18 0 6 385.46 31.9
18 0 6 402.76 34.7
-18 0 -7 5.9 6.8
18 0 7 1.6 5.2
18 0 7 10.5 5.4
18 0 7 5.7 6.5
18 0 8 51.49 11.6
18 0 9 24.3 9.7
-18 1 9 19.2 10
18 -1 -9 19.9 12.1
-18 1 8 -4.2 6.7
18 -1 -8 3.3 9
-18 1 7 63.09 13.8
18 -1 -7 65.19 16.7
-18 1 6 3.1 6.4
18 -1 -6 1.9 6.9
-18 1 5 59.79 12.6
-18 1 5 48.3 9.8
18 -1 -5 56.49 14.7
-18 1 4 64.29 12.1
-18 1 4 71.79 12.8
-18 1 4 50.69 7.6
18 -1 -4 64.49 15.3
-18 1 3 129.09 20.3
-18 1 3 163.08 18.2
-18 1 3 131.69 14.6
18 -1 -3 213.28 27.1
-18 1 2 124.59 22.1
-18 1 2 136.79 15
-18 1 2 143.89 16.9
18 -1 -2 142.49 21.1
-18 1 1 147.59 16.5
-18 1 1 155.78 15.5
18 -1 -1 70.19 16
-18 1 0 53.59 10.1
-18 1 0 53.29 9.7
18 -1 0 42.7 11.7
-18 1 -1 123.29 14.7
-18 1 -1 137.09 15.4
18 -1 1 99.59 17.7
-18 1 -2 111.49 13
-18 1 -2 90.09 12.8
18 -1 2 80.09 15.4
-18 1 -3 117.19 15.4
18 -1 3 97.59 16.8
18 -1 3 123.59 14.6
18 -1 3 141.29 15.6
-18 1 -4 43.7 9.6
18 -1 4 52.59 12.1
18 -1 4 27.3 7.4
18 -1 4 49.9 9.1
-18 1 -5 45.4 10.3
18 -1 5 32.4 11.2
18 -1 5 44.1 8.2
18 -1 5 42.1 9.2
18 -1 5 60.49 12.7
-18 1 -6 5.8 6.6
18 -1 6 3 4.6
18 -1 6 1.9 5.3
18 -1 6 5.3 3.8
-18 1 -7 59.79 11.9
18 -1 7 47.5 12.2
18 -1 7 82.79 13.7
18 -1 8 16.1 7.6
18 -1 9 41.1 11.1
-18 2 9 2.3 7.3
18 -2 -9 8.9 10.6
-18 2 8 0.8 6.9
18 -2 -8 -2.6 7.7
-18 2 7 -3.6 5.8
18 -2 -7 -4.6 7.5
-18 2 6 22.5 9.5
18 -2 -6 25.4 10.9
-18 2 5 35 8.5
-18 2 5 24.4 8.5
18 -2 -5 22.7 11.1
-18 2 4 8.2 3.7
-18 2 4 6.6 6
-18 2 4 3.2 5.5
18 -2 -4 7.5 8.6
-18 2 3 -0.6 3.6
-18 2 3 2.3 6.8
18 -2 -3 -3 6.4
-18 2 2 54.29 9.3
-18 2 2 49.8 14.7
18 -2 -2 67.59 14.5
-18 2 1 35.9 7.8
18 -2 -1 31.4 11.1
-18 2 0 -1 3.6
18 -2 0 -1.8 5.4
-18 2 -1 50.69 9.7
18 -2 1 40.3 11.5
-18 2 -2 37.5 8.7
18 -2 2 61.29 13.4
-18 2 -3 -5.8 4.5
18 -2 3 -3.6 4.3
-18 2 -4 0.8 4.7
18 -2 4 6 4.5
18 -2 4 5.4 6.4
18 -2 4 6.4 4.4
-18 2 -5 17.4 6.6
18 -2 5 16.6 5.7
18 -2 5 21.6 6.7
18 -2 5 21.1 9.5
-18 2 -6 13 6.3
18 -2 6 11.9 7
18 -2 6 24.4 5.6
18 -2 6 18 6.4
-18 2 -7 2.7 6
18 -2 7 0.7 4.1
18 -2 8 8.3 6.4
18 -2 9 16.3 7.6
-18 3 9 7.4 8.6
18 -3 -9 22.9 12.4
-18 3 8 -3.9 5.7
18 -3 -8 -1.4 8.8
-18 3 7 42 11.4
18 -3 -7 59.19 17
-18 3 6 -1.9 5.7
18 -3 -6 1.5 8.3
-18 3 5 90.69 13.3
18 -3 -5 50.99 14.8
-18 3 4 75.89 9.7
-18 3 4 93.19 16.8
18 -3 -4 64.99 16.3
-18 3 3 26 6.7
-18 3 3 23.7 9.1
18 -3 -3 16.6 9.9
-18 3 2 105.29 13.1
-18 3 2 90.09 16.8
18 -3 -2 112.39 19.2
-18 3 1 16.7 6.1
18 -3 -1 9.9 7.4
-18 3 0 47.6 9.2
18 -3 0 49.5 12.6
-18 3 -1 8.2 5.5
18 -3 1 2.7 6.1
-18 3 -2 99.89 13.2
18 -3 2 49 13.2
-18 3 -3 25.9 7.7
18 -3 3 23.9 8.8
-18 3 -4 53.49 10.3
18 -3 4 67.99 10.9
18 -3 4 52.59 12.4
-18 3 -5 60.59 11.4
18 -3 5 95.49 11.7
18 -3 5 68.99 11.1
18 -3 5 56.99 13.3
-18 3 -6 10.4 6.7
18 -3 6 -2.9 4.5
18 -3 6 2.5 4
18 -3 6 4.3 3.8
-18 3 -7 52.59 12.1
18 -3 7 44.1 10.1
18 -3 8 0 5
18 -3 9 30.8 9.2
-18 4 9 3.9 8.7
18 -4 -9 16.1 12.2
-18 4 8 37.7 11.4
18 -4 -8 43.8 14.8
-18 4 7 11.9 8.5
18 -4 -7 12.8 10.1
18 -4 -6 11 9.2
-18 4 5 25.7 8
18 -4 -5 22.1 12.2
-18 4 4 14.2 4.8
-18 4 4 8.2 7.7
18 -4 -4 13 10.7
-18 4 3 6.5 8.2
-18 4 3 9.6 5.2
18 -4 -3 9.8 8.4
-18 4 2 -7.5 7.4
-18 4 2 3.1 4.8
18 -4 -2 10.7 7.9
-18 4 1 8.4 5.2
18 -4 -1 8.6 7.6
-18 4 0 0.1 4.4
18 -4 0 -3.5 4.7
-18 4 -1 0 4.5
18 -4 1 -1.3 5.7
-18 4 -2 5.6 5
18 -4 2 -5.4 5.3
-18 4 -3 3.4 5.1
18 -4 3 -1.5 5.5
-18 4 -4 2.9 5.3
18 -4 4 10 4.4
18 -4 4 5.7 6.3
-18 4 -5 29.2 8.5
18 -4 5 30 13.3
18 -4 5 37.4 8.3
-18 4 -6 13.3 6.6
18 -4 6 15.6 5.9
18 -4 6 6.1 6.5
18 -4 6 11.7 4.9
-18 4 -7 9.1 7.6
18 -4 7 17.8 6.8
18 -4 8 42.3 9.9
18 -4 9 15.9 7.8
-18 5 8 12.4 8.8
18 -5 -8 13.5 11.8
18 -5 -7 1.3 9.2
18 -5 -6 5.4 9.9
-18 5 5 9.1 7.8
18 -5 -5 27.7 13
-18 5 4 0.4 7
-18 5 4 5.7 4.1
18 -5 -4 13.4 9.3
-18 5 3 20.8 6.4
-18 5 3 19.9 10
18 -5 -3 48.5 14.4
-18 5 2 79.19 11.9
18 -5 -2 52.29 15.3
-18 5 1 1.4 4.8
18 -5 -1 9.5 8
-18 5 0 36.7 8.6
18 -5 0 51.19 13.2
-18 5 -1 -3.9 4
18 -5 1 -0.3 6.6
-18 5 -2 62.99 11
18 -5 2 28.7 10
-18 5 -3 25.9 7.4
18 -5 3 14.8 8.1
-18 5 -4 12.5 6.6
18 -5 4 -3.4 5.8
-18 5 -5 7.6 5.8
18 -5 5 9.8 4.8
-18 5 -6 6.8 6.3
18 -5 6 -2.1 3.9
18 -5 6 5.6 5.5
18 -5 6 5.3 4.4
-18 5 -7 -0.2 5.9
18 -5 7 2.3 4.3
18 -5 8 3.8 5.4
18 -6 -8 7.3 9.9
18 -6 -7 27.7 13.6
18 -6 -6 -3.9 8.9
-18 6 5 1.1 6.7
18 -6 -5 -3.4 7.4
-18 6 4 76.79 10.5
-18 6 4 64.69 14.8
18 -6 -4 25.5 12.6
-18 6 3 6.3 10
-18 6 3 6.3 5.1
18 -6 -3 -6.5 7.5
-18 6 2 19.7 7.1
18 -6 -2 1.9 7.5
-18 6 1 57.89 10.9
18 -6 -1 66.99 16.9
-18 6 0 3.8 4.6
18 -6 0 0.8 6
-18 6 -1 40.2 9.4
18 -6 1 42 12
-18 6 -2 12.2 6
18 -6 2 6.1 7.4
-18 6 -3 -2.1 4.5
18 -6 3 7.3 6.8
-18 6 -4 64.99 11.9
-18 6 -5 -2.7 4.7
18 -6 5 -3.2 2.9
-18 6 -6 -4.4 4.7
18 -6 6 8.5 7.7
18 -6 6 0.2 4.1
-18 6 -7 18.3 8.5
18 -6 7 16.7 6.7
18 -6 8 1.2 4.9
18 -7 -7 72.69 18.8
18 -7 -6 57.89 17.8
18 -7 -5 92.09 21.6
-18 7 4 -0.3 8.6
-18 7 4 5.1 4.5
18 -7 -4 1.7 9.1
-18 7 3 171.98 19.3
18 -7 -3 186.88 28.3
-18 7 2 50.69 10.4
18 -7 -2 52.99 15.8
-18 7 1 56.79 11
18 -7 -1 77.29 17.9
-18 7 0 88.89 13.7
18 -7 0 53.29 14.4
-18 7 -1 74.49 12.5
18 -7 1 85.79 17.8
-18 7 -2 37.6 9.5
18 -7 2 42.4 12.4
-18 7 -3 111.49 15.5
18 -7 3 104.79 18.2
-18 7 -4 -1.2 4.3
-18 7 -5 80.09 14
18 -7 5 77.19 11.8
-18 7 -6 58.29 12
18 -7 6 47.4 9.4
-18 7 -7 70.19 13.6
18 -8 -7 6 11.8
18 -8 -6 13.2 12.2
18 -8 -5 -7.4 8
-18 8 4 -4.6 8.1
-18 8 4 6 5.3
18 -8 -4 0 7.9
-18 8 3 12.7 6.3
18 -8 -3 13.1 10.5
-18 8 2 29.5 8.1
18 -8 -2 11.2 11
-18 8 1 12.8 6.5
18 -8 -1 12.6 10.5
-18 8 0 1.7 4.8
18 -8 0 13.8 10.1
-18 8 -1 11.6 6.5
18 -8 1 15.6 9.5
18 -8 2 11.4 8.4
-18 8 -3 14.8 7.8
18 -8 3 16.5 8.6
-18 8 -4 0.3 5.2
-18 8 -5 5.3 6.6
18 -8 5 -1 3.6
-18 8 -6 19 8.3
-18 8 -7 9.1 7.7
18 -9 -6 27.6 15.7
18 -9 -5 83.09 22.6
18 -9 -4 35.5 14.6
-18 9 3 95.99 14.6
18 -9 -3 85.39 21
-18 9 2 5.1 5.8
18 -9 -2 -2.4 7.5
-18 9 1 8.3 5.8
18 -9 -1 13.4 11
-18 9 0 0.7 4.8
18 -9 0 -7.5 6
-18 9 -1 12.2 7.2
18 -9 1 15.8 9.3
-18 9 -2 4.6 5.6
18 -9 2 17.1 9.7
-18 9 -3 77.39 13.4
-18 9 -4 31.3 9.4
-18 9 -5 58.49 12.6
-18 9 -6 16.4 8.6
18 -10 -5 32.2 15.5
18 -10 -4 122.09 26.4
-18 10 3 25.1 8.5
18 -10 -3 20.2 12.5
-18 10 2 117.69 16.6
18 -10 -2 96.89 23
-18 10 1 7.4 6
18 -10 -1 -5.3 7.9
-18 10 0 111.49 16.1
18 -10 0 82.69 19
-18 10 -1 2.7 5.6
18 -10 1 8.9 9.9
-18 10 -2 127.29 17.9
18 -10 2 85.99 19
-18 10 -3 26.9 9.3
-18 10 -4 79.69 14.1
-18 10 -5 59.09 12.9
18 -11 -4 1.6 10.2
-18 11 3 0.4 6.3
18 -11 -3 -7.8 8.5
-18 11 2 24 9.3
18 -11 -2 21.7 12.9
-18 11 1 0.7 6.2
18 -11 -1 1.7 10.1
-18 11 0 16.4 8.2
18 -11 0 10.3 9.9
-18 11 -1 0 5.9
18 -11 1 12.4 10.6
-18 11 -2 3.5 6.2
18 -11 2 16.5 10.5
-18 11 -3 6.1 7.1
-18 11 -4 7.2 7
-18 12 1 2.9 7
18 -12 -1 2.7 9.5
-18 12 0 -5.4 5.2
18 -12 0 5.6 11.4
-18 12 -1 17.5 8.6
18 -12 1 0.3 9.7
-19 -11 3 34 16.4
-19 -11 3 34.9 8.5
19 11 -3 18.3 10.7
19 11 -3 20.8 10.1
-19 -11 2 14.5 6.9
-19 -11 2 22.5 14.8
19 11 -2 17.9 11.1
19 11 -2 11.1 8.5
-19 -11 1 -0.6 4.8
-19 -11 1 4 12.1
19 11 -1 16 8.2
19 11 -1 17.5 10.5
-19 -11 0 5.4 10.3
-19 -11 0 0 4.9
19 11 0 -2.5 7.5
19 11 0 5.7 6.9
-19 -11 -1 9.3 12.7
-19 -11 -1 3.1 5.7
19 11 1 1.4 7.8
19 11 1 0.4 6.2
-19 -11 -2 19.9 14.2
-19 -11 -2 13.9 7.7
19 11 2 22.3 11.2
19 11 2 17 8
-19 -11 -3 20.1 8.6
-19 -11 -3 30.6 14.3
19 11 3 11.6 9.2
19 11 3 20.6 8.6
-19 -10 4 0.2 11
19 10 -4 28.5 13
19 10 -4 14.5 9
-19 -10 3 23.9 6.6
-19 -10 3 36.5 16.2
19 10 -3 12.4 9
19 10 -3 24 9.9
-19 -10 2 -9.9 10.3
-19 -10 2 -1.4 4.1
19 10 -2 -0.7 6.6
19 10 -2 -0.5 7.6
-19 -10 1 10.5 12.6
-19 -10 1 4.4 5.2
19 10 -1 -5.5 6.1
19 10 -1 -5.7 5.4
-19 -10 0 4.1 5.3
-19 -10 0 8.7 12.4
19 10 0 34.3 12.6
19 10 0 4.3 5.9
-19 -10 -1 1.2 5.1
-19 -10 -1 4.8 10.3
19 10 1 7.2 6.4
19 10 1 -0.2 6.7
-19 -10 -2 3.6 10.6
-19 -10 -2 -0.9 5.3
19 10 2 -0.6 5.2
19 10 2 -0.8 6.7
-19 -10 -3 19.8 12.2
-19 -10 -3 6.1 6.3
19 10 3 33.7 9.2
19 10 3 27.4 11.7
-19 -10 -4 8.8 7.4
19 10 4 9.1 7.5
19 10 4 11 6.7
19 10 4 2.9 9.1
19 9 -5 16.7 11
19 9 -5 8 8.6
-19 -9 4 4 10.1
19 9 -4 -1 6.5
19 9 -4 4.8 8.5
-19 -9 3 -2.3 10.2
-19 -9 3 4.9 4.6
19 9 -3 18.4 10.7
19 9 -3 4.4 7
-19 -9 2 -6.9 9.1
-19 -9 2 8.4 5.1
19 9 -2 5.2 8.6
19 9 -2 -3.8 6.3
-19 -9 1 15.8 12.3
-19 -9 1 1.4 4.8
19 9 -1 -0.9 6.7
19 9 -1 20.1 7.8
-19 -9 0 -1.1 9.8
-19 -9 0 -0.6 4.6
19 9 0 -0.6 7.2
19 9 0 -2 5.4
-19 -9 -1 -0.9 4.4
-19 -9 -1 8.8 10.6
19 9 1 1.2 7.1
19 9 1 -0.5 5.3
-19 -9 -2 -3.1 9.3
-19 -9 -2 5.8 6.4
19 9 2 8.2 7.3
19 9 2 6.8 5.8
-19 -9 -3 4.8 10.4
-19 -9 -3 9.4 6.4
19 9 3 -1.4 5.1
19 9 3 0.6 5.5
19 9 3 -0.1 6.9
-19 -9 -4 15 7.4
19 9 4 8.3 6
19 9 4 11.4 7.9
19 9 4 4.4 6.5
-19 -9 -5 27.2 8.7
19 9 5 19.1 7.3
19 9 5 12.4 8.1
19 9 5 11.7 9.5
-19 -9 -6 18.3 8.6
19 8 -6 -2.2 7.5
19 8 -5 28.9 12.4
19 8 -5 30 12.7
-19 -8 4 1.8 9.9
-19 -8 4 14 8.4
19 8 -4 5.4 7
19 8 -4 -6.6 5.8
-19 -8 3 55.69 9.7
-19 -8 3 58.39 17.7
19 8 -3 69.29 15.9
19 8 -3 59.59 12.2
-19 -8 2 -8.6 9.8
-19 -8 2 3.3 4.7
19 8 -2 5.9 6.9
19 8 -2 1 5.6
-19 -8 1 29.1 7.8
-19 -8 1 33 14.8
19 8 -1 29.9 12
19 8 -1 34.4 9.6
-19 -8 0 122.29 15.5
-19 -8 0 76.89 18.5
19 8 0 105.59 19.3
19 8 0 100.69 15.2
-19 -8 -1 23.2 12.2
-19 -8 -1 28.9 7.7
19 8 1 16.9 6.9
19 8 1 15.7 9.5
19 8 1 10.5 5.7
-19 -8 -2 11.3 6
-19 -8 -2 0.9 8
19 8 2 5.8 5.9
19 8 2 -3 4.5
19 8 2 3.7 7
-19 -8 -3 30.6 12.8
-19 -8 -3 51.39 10.8
19 8 3 48.2 10.2
19 8 3 37.6 11.5
19 8 3 59.69 11.5
-19 -8 -4 -2.2 5.6
19 8 4 13 9.2
19 8 4 3.1 6.3
-19 -8 -5 24 8.5
19 8 5 29.7 8.3
19 8 5 21.1 9.6
19 8 5 9.1 7.2
-19 -8 -6 0.8 6.7
19 8 6 3.6 6.5
19 8 6 4.1 8.7
19 7 -7 10.6 13.8
19 7 -6 36.4 13.4
19 7 -5 7.8 8
19 7 -5 -5.5 8
-19 -7 4 15 7.6
19 7 -4 28.7 11.6
19 7 -4 8.6 6.9
-19 -7 3 3.7 10
-19 -7 3 2.4 3.6
19 7 -3 -3.1 6.5
19 7 -3 -1 5.2
-19 -7 2 55.39 17.6
-19 -7 2 50.79 9
19 7 -2 36 11.5
19 7 -2 51.39 11.2
-19 -7 1 -1.7 9.7
-19 -7 1 5.6 4.8
19 7 -1 -3.2 5.1
19 7 -1 6.1 5.7
-19 -7 0 18.1 10.5
-19 -7 0 4.3 5.1
19 7 0 3.1 6.4
19 7 0 -6 4.3
19 7 0 3.4 4.2
-19 -7 -1 14.9 6.8
-19 -7 -1 2.9 9.6
19 7 1 -1.1 4.4
19 7 1 5.2 4.9
19 7 1 12.1 7.6
-19 -7 -2 49.8 10
-19 -7 -2 21.7 10.8
19 7 2 51.39 14.5
19 7 2 35.9 8.9
19 7 2 54.39 9.8
-19 -7 -3 -3.2 4.1
-19 -7 -3 -6.3 7.9
19 7 3 4.3 5
19 7 3 8.4 8
19 7 3 3.6 5.3
-19 -7 -4 15 6.9
-19 -7 -4 6.6 9.2
19 7 4 12 8.2
19 7 4 5.9 5.5
19 7 4 3.9 5.6
-19 -7 -5 1.9 6.4
19 7 5 -0.1 5.8
19 7 5 -1.1 7
19 7 5 2.9 4.9
-19 -7 -6 39.4 10.5
19 7 6 37 11
19 7 6 43.8 14.4
-19 -7 -7 11.9 8.4
19 7 7 14.9 9.8
19 7 7 11.3 8
-19 -6 8 3.5 6.2
-19 -6 8 0 6.8
-19 -6 7 18.8 10.3
19 6 -7 21.5 10.3
-19 -6 6 9.8 8.3
19 6 -6 17.7 9.9
-19 -6 5 26.6 9.4
19 6 -5 14.7 9.4
-19 -6 4 25.9 8.6
-19 -6 4 19 5
-19 -6 4 20.4 9.4
19 6 -4 28.1 8.6
19 6 -4 8.8 8.3
-19 -6 3 19.5 5.9
-19 -6 3 15.6 7.5
-19 -6 3 4.3 9
19 6 -3 5.3 7.6
19 6 -3 16.2 7
-19 -6 2 15.5 5.8
-19 -6 2 25.6 8.5
-19 -6 2 33.8 13.2
19 6 -2 10.3 8.2
19 6 -2 7 5.7
19 6 -2 10.1 4.8
-19 -6 1 84.99 12.1
-19 -6 1 35.1 13.4
19 6 -1 60.89 9.4
19 6 -1 54.39 13.4
19 6 -1 78.59 12.4
-19 -6 0 3.9 9
-19 -6 0 -5.2 3.6
19 6 0 7.9 7.1
19 6 0 9.3 5.7
19 6 0 -0.6 3.8
-19 -6 -1 64.99 11
19 6 1 82.79 16.1
19 6 1 70.79 11.8
19 6 1 64.59 10.1
-19 -6 -2 24.2 10.3
-19 -6 -2 19.7 6.7
19 6 2 18.7 6.8
19 6 2 14 5.9
19 6 2 10.7 9
-19 -6 -3 20.5 7.6
-19 -6 -3 0.4 8.5
19 6 3 23.3 9.1
19 6 3 26.6 7.3
19 6 3 27.2 7.7
-19 -6 -4 28.3 12.1
-19 -6 -4 20.4 8
19 6 4 12.8 6.2
19 6 4 14 6.6
19 6 4 23.4 9.2
-19 -6 -5 13.4 10.2
-19 -6 -5 27.4 9
19 6 5 28.8 7.4
19 6 5 20.2 10.3
19 6 5 7.4 6.6
-19 -6 -6 10 7.2
19 6 6 7.5 5
19 6 6 8.4 7.9
19 6 6 5.8 7.7
-19 -6 -7 46.5 10.8
19 6 7 43.7 13.2
19 6 7 5.2 7.6
-19 -5 8 38.8 9.9
-19 -5 8 21.3 9.1
-19 -5 7 14.4 7.1
-19 -5 7 4.6 7.1
19 5 -7 12.1 9.7
-19 -5 6 56.89 13.2
19 5 -6 121.29 20.6
-19 -5 5 46.2 11.3
-19 -5 5 40.6 12.3
19 5 -5 29.7 10.9
-19 -5 4 251.67 20.1
-19 -5 4 260.87 25.8
-19 -5 4 270.97 24.8
19 5 -4 239.68 30.3
19 5 -4 258.57 23.8
-19 -5 3 10.9 7.7
-19 -5 3 10.2 4.9
-19 -5 3 18.9 8.5
19 5 -3 9.2 7.8
19 5 -3 6.4 5.8
-19 -5 2 149.88 16.5
-19 -5 2 181.98 19.9
-19 -5 2 156.68 24.6
19 5 -2 129.89 21
19 5 -2 155.28 18.5
-19 -5 1 -0.8 9.2
-19 -5 1 3.3 4.5
-19 -5 1 2 5.3
19 5 -1 0.4 4.5
19 5 -1 -3 5.7
-19 -5 0 217.78 20.1
-19 -5 0 206.98 28
-19 -5 0 244.78 20.5
19 5 0 205.08 19.2
19 5 0 190.58 26.1
19 5 0 215.48 20.4
-19 -5 -1 -1.2 8.3
-19 -5 -1 2.9 4.9
19 5 1 4.8 7.2
19 5 1 3.1 3.8
19 5 1 7.7 5.4
-19 -5 -2 94.59 17.5
-19 -5 -2 150.98 17
19 5 2 133.29 16.1
19 5 2 89.29 17
19 5 2 149.79 16.4
-19 -5 -3 22.4 10.2
-19 -5 -3 11.1 6.3
19 5 3 5.4 4.4
19 5 3 8.2 7
19 5 3 12.4 6
-19 -5 -4 285.57 24.3
19 5 4 213.38 28.4
19 5 4 263.97 23.8
19 5 4 236.98 22.4
-19 -5 -5 65.89 14.8
-19 -5 -5 42.1 10.7
19 5 5 49.4 9.6
19 5 5 45.6 10.7
19 5 5 36.9 11.9
-19 -5 -6 90.99 14.3
19 5 6 76.19 14.1
19 5 6 73.79 11.1
19 5 6 54.19 14.5
19 5 6 89.09 17.6
-19 -5 -7 9.8 7.7
19 5 7 11.9 8.4
19 5 8 24.5 9.6
-19 -4 8 1.4 6.8
-19 -4 8 0.3 5.9
-19 -4 7 32.6 10.3
-19 -4 7 15.6 8.1
19 4 -7 22.6 10.6
-19 -4 6 33.1 10.2
19 4 -6 34.9 12.3
-19 -4 5 44.9 11.6
-19 -4 5 61.89 10.8
19 4 -5 40.3 13
-19 -4 4 27 8.5
-19 -4 4 41.8 9.9
-19 -4 4 25.3 5.7
19 4 -4 29 11.2
19 4 -4 31.9 8.7
-19 -4 3 54.89 9.2
-19 -4 3 73.99 15.4
-19 -4 3 65.79 11.3
19 4 -3 64.19 11.6
19 4 -3 50.09 13.3
-19 -4 2 39.3 9.3
-19 -4 2 28.4 6.7
19 4 -2 20.3 9.5
19 4 -2 23.1 7.4
-19 -4 1 39 7.9
-19 -4 1 54.59 13.8
-19 -4 1 48 9.5
19 4 -1 43.2 9.4
19 4 -1 40.4 11.7
-19 -4 0 156.98 17.7
-19 -4 0 167.08 23.3
-19 -4 0 150.78 17.6
19 4 0 149.79 16.4
19 4 0 157.68 18.3
19 4 0 134.59 20.9
-19 -4 -1 84.49 16.8
-19 -4 -1 56.79 9.6
-19 -4 -1 44.8 9.3
19 4 1 44.4 8.8
19 4 1 34.9 8.4
19 4 1 30.8 10.5
-19 -4 -2 33.3 11.5
-19 -4 -2 35.3 8.7
19 4 2 28.3 7.5
19 4 2 24.6 9.3
19 4 2 44.4 8.8
-19 -4 -3 79.79 15.7
-19 -4 -3 85.09 13
19 4 3 62.29 10.8
19 4 3 59.89 10.8
19 4 3 45.1 12.4
-19 -4 -4 26.8 8.4
-19 -4 -4 15.8 9.1
19 4 4 12.6 7.5
19 4 4 10.9 5.7
-19 -4 -5 89.59 13.4
19 4 5 73.99 12.8
19 4 5 66.99 14.6
19 4 5 50.09 9.9
-19 -4 -6 44.7 10.6
19 4 6 15.9 7.9
19 4 6 22.9 10
19 4 6 31 7.4
19 4 6 31.4 10.9
-19 -4 -7 18.9 8.5
19 4 7 11.8 7.4
19 4 8 5.1 6.6
-19 -3 9 13.5 9.4
-19 -3 8 7 7.1
19 3 -8 3.5 9
-19 -3 7 28.6 10.9
-19 -3 7 49.4 10.7
19 3 -7 36.3 12.1
-19 -3 6 2.4 5.9
19 3 -6 0.7 8
-19 -3 5 6.8 4.6
-19 -3 5 7.5 6.5
19 3 -5 -3.1 6.4
-19 -3 4 6.4 3.8
-19 -3 4 13 6.7
-19 -3 4 7.2 6.1
19 3 -4 3.5 7.1
-19 -3 3 85.19 17.1
-19 -3 3 100.59 12.1
-19 -3 3 99.99 15.1
19 3 -3 94.19 17.9
-19 -3 2 45.2 9.5
-19 -3 2 46.2 8.2
19 3 -2 41.1 11.9
19 3 -2 31.7 8.4
-19 -3 1 151.98 16.3
-19 -3 1 115.59 14.3
19 3 -1 105.59 18.4
19 3 -1 89.49 13.5
-19 -3 0 21.3 10.1
-19 -3 0 16.7 6
-19 -3 0 23.2 6.8
19 3 0 27.8 9.5
19 3 0 8.2 5.4
-19 -3 -1 104.49 12.9
-19 -3 -1 126.49 19.5
-19 -3 -1 95.99 13.5
19 3 1 80.69 11.7
19 3 1 100.29 13.6
19 3 1 78.89 15.7
-19 -3 -2 48.6 9.8
-19 -3 -2 35.8 11.4
19 3 2 57.59 10.1
19 3 2 52.59 9.3
19 3 2 39.3 10.9
-19 -3 -3 84.29 15.4
-19 -3 -3 85.39 12.8
19 3 3 75.59 11.6
19 3 3 66.29 11.2
19 3 3 53.59 13
-19 -3 -4 13 6.2
-19 -3 -4 -3.7 7.9
19 3 4 10.3 6.7
19 3 4 10.9 5.5
19 3 4 18.9 6
-19 -3 -5 9.9 6.5
19 3 5 -7.7 4.2
19 3 5 4.1 5.4
19 3 5 5.7 4.3
-19 -3 -6 -0.1 5.9
19 3 6 9.2 6.8
19 3 6 8.9 4.8
19 3 6 5 7
19 3 6 6.2 5.9
-19 -3 -7 49.2 11.4
19 3 7 36 10
19 3 8 5.6 5.9
19 3 9 28.1 10.3
-19 -2 9 19.2 9
-19 -2 8 5.3 7
19 2 -8 9.2 8.9
-19 -2 7 37.9 10.9
19 2 -7 55.19 14.3
-19 -2 6 5.8 6.8
19 2 -6 21.7 10.8
-19 -2 5 88.49 15.4
-19 -2 5 113.99 13.4
19 2 -5 93.99 18.5
-19 -2 4 0.6 3
-19 -2 4 3.4 6.1
-19 -2 4 6.7 6.1
19 2 -4 -2.9 5.4
-19 -2 3 264.77 22.6
-19 -2 3 197.08 24.3
-19 -2 3 201.88 17.9
19 2 -3 207.98 27.2
-19 -2 2 18.2 8.9
-19 -2 2 40.6 9.6
-19 -2 2 12.9 5.4
19 2 -2 27.1 9.4
-19 -2 1 150.98 17.4
-19 -2 1 168.08 17.2
19 2 -1 119.19 19.6
-19 -2 0 71.79 11.6
-19 -2 0 106.19 13.6
19 2 0 83.49 12.6
19 2 0 82.79 16.1
-19 -2 -1 135.89 16.1
-19 -2 -1 138.49 15.8
-19 -2 -1 156.88 22.2
19 2 1 151.08 22.1
19 2 1 109.99 15.1
-19 -2 -2 6.5 6.4
-19 -2 -2 17.9 9.3
19 2 2 13.9 8.1
19 2 2 15.5 6.3
19 2 2 6.2 5.1
-19 -2 -3 179.68 19.9
-19 -2 -3 192.88 24.2
19 2 3 171.48 23.5
19 2 3 201.18 20.3
19 2 3 187.88 18.2
-19 -2 -4 5.3 6
19 2 4 2.1 4.2
19 2 4 2.4 4.1
19 2 4 -0.5 4.8
-19 -2 -5 92.09 14.3
19 2 5 97.69 14
19 2 5 71.29 14.8
19 2 5 103.09 12.9
-19 -2 -6 4.8 6.6
19 2 6 1 4.9
19 2 6 14.4 5.4
19 2 6 0.1 5.7
19 2 6 -2.3 4.8
-19 -2 -7 28.3 9.2
19 2 7 38.5 9.8
19 2 8 9.9 6.8
19 2 9 34.4 11.2
-19 -1 9 17.5 10.1
-19 -1 8 64.69 13.7
19 1 -8 48.5 14.4
-19 -1 7 33.7 10
19 1 -7 48.8 14.9
-19 -1 6 -1.1 5.7
19 1 -6 -3.6 6.3
-19 -1 5 84.39 14.5
-19 -1 5 77.89 12.2
19 1 -5 57.99 15.3
-19 -1 4 44.2 11
-19 -1 4 53.09 7.4
-19 -1 4 38.4 10
19 1 -4 44.2 13.1
-19 -1 3 222.08 24.6
-19 -1 3 211.88 18.6
-19 -1 3 238.68 21.9
19 1 -3 199.28 27.4
-19 -1 2 46.6 12.3
-19 -1 2 68.39 12.2
-19 -1 2 53.19 9
19 1 -2 30.7 10.5
-19 -1 1 28.2 7.1
-19 -1 1 37.3 9.2
19 1 -1 6.3 6.4
-19 -1 0 9.5 5.4
-19 -1 0 6 5.3
19 1 0 8.1 6.5
-19 -1 -1 15.3 6
-19 -1 -1 22 6.7
19 1 1 10.5 5.8
19 1 1 29.3 9.6
-19 -1 -2 17.1 9.5
-19 -1 -2 21.9 7.1
19 1 2 43.3 8.6
19 1 2 29.3 9.9
19 1 2 33.2 7.2
-19 -1 -3 177.48 26
-19 -1 -3 165.28 18.6
19 1 3 153.58 17.7
19 1 3 151.78 17.3
19 1 3 133.29 20.1
-19 -1 -4 44.1 9.8
19 1 4 25.5 7.5
19 1 4 24.6 9.2
19 1 4 29.5 7.5
-19 -1 -5 48.1 11.4
19 1 5 58.69 17.1
19 1 5 68.69 14.3
19 1 5 55.19 9.7
19 1 5 66.99 11.5
-19 -1 -6 7.4 6
19 1 6 7.8 4.6
19 1 6 5.2 6.3
19 1 6 5.4 5.5
-19 -1 -7 17.9 8.6
19 1 7 37.7 10.3
19 1 8 52.59 11.9
19 1 9 35.7 10.7
-19 0 9 3.9 7.1
19 0 -9 -2.3 8.4
-19 0 8 -4.9 5.7
19 0 -8 5.5 9.1
-19 0 7 5.5 7.6
19 0 -7 -0.8 8.2
-19 0 6 -3.5 5.9
19 0 -6 5.8 9.2
-19 0 5 3.5 4.7
-19 0 5 8.4 6.7
19 0 -5 -4.7 7
-19 0 4 2.3 5.8
-19 0 4 -0.3 2.8
-19 0 4 1.7 5.5
19 0 -4 1.5 8.7
-19 0 3 9.5 6.8
-19 0 3 8.4 6.6
-19 0 3 5.9 4.4
19 0 -3 0.6 7.5
-19 0 2 4.5 7
-19 0 2 -5.3 3.3
-19 0 2 -5.9 4.9
19 0 -2 4.7 7
-19 0 1 -5.9 3.5
-19 0 1 2 4.8
19 0 -1 -1 5
-19 0 0 0.2 4.5
-19 0 0 -2.1 4.8
19 0 0 -6.8 4
-19 0 -1 2.6 5.6
-19 0 -1 0.8 4.6
19 0 1 -1.6 5
-19 0 -2 1.2 5.4
-19 0 -2 -1.3 6.1
19 0 2 3.4 5.4
19 0 2 -2.1 4.3
-19 0 -3 -3.2 5.1
19 0 3 -3.9 3.7
19 0 3 -2.7 3.4
19 0 3 -1.6 5.3
-19 0 -4 5.6 5.9
19 0 4 -6 4.6
19 0 4 -8.1 3.4
19 0 4 1 3.9
-19 0 -5 -0.3 5.7
19 0 5 -1 3.4
19 0 5 -4.1 5.7
19 0 5 -1.8 4
19 0 5 0.5 4.9
-19 0 -6 -2.3 5.2
19 0 6 3 3.8
19 0 6 -2.4 5.4
19 0 6 -1.8 4
-19 0 -7 3.1 6.7
19 0 7 1.5 5
19 0 8 23.6 8.8
19 0 9 -3.2 5.4
-19 1 9 13.8 9.1
19 -1 -9 -0.9 9.9
-19 1 8 31.8 11
19 -1 -8 31.6 12.4
-19 1 7 47.5 11.9
19 -1 -7 22.7 12.5
-19 1 6 1.1 6.5
19 -1 -6 4 9.2
-19 1 5 80.59 12.9
-19 1 5 60.29 12.8
19 -1 -5 62.59 17.1
-19 1 4 65.79 12.6
-19 1 4 49.5 7.6
-19 1 4 60.59 12.9
19 -1 -4 42.9 14
-19 1 3 183.38 23.1
-19 1 3 232.08 18.8
-19 1 3 277.77 22.4
19 -1 -3 150.98 25.1
-19 1 2 48.4 8.9
-19 1 2 59.59 16
19 -1 -2 54.79 13.7
-19 1 1 16.1 6.4
-19 1 1 26 7.5
19 -1 -1 37.4 11.7
-19 1 0 8.8 6.3
-19 1 0 5.1 5.1
19 -1 0 8.9 8
-19 1 -1 7.2 5.9
-19 1 -1 18.7 6.8
19 -1 1 18.1 8.5
-19 1 -2 40.3 8.6
-19 1 -2 18.9 7.2
19 -1 2 21.8 9.4
-19 1 -3 149.39 17.3
19 -1 3 109.79 18.8
19 -1 3 165.18 17.1
19 -1 3 136.29 16.5
-19 1 -4 50.49 10.4
19 -1 4 35 8.2
19 -1 4 39.5 11.3
19 -1 4 44.4 9.1
-19 1 -5 74.19 12.7
19 -1 5 40.8 9.1
19 -1 5 55.99 12.8
19 -1 5 61.69 9.8
19 -1 5 65.19 18.8
-19 1 -6 6.8 6.5
19 -1 6 7.6 7.1
19 -1 6 7.8 5
19 -1 6 7.6 4.4
-19 1 -7 27.4 9.4
19 -1 8 53.69 12.1
19 -1 9 15.3 7.7
-19 2 9 9.1 9.6
19 -2 -9 23.3 13.6
-19 2 8 4 7.2
19 -2 -8 -5.5 7.3
-19 2 7 11.8 8.6
19 -2 -7 43.7 14.6
-19 2 6 10.1 7.2
19 -2 -6 1.1 8.4
-19 2 5 121.19 15.9
-19 2 5 98.99 16.3
19 -2 -5 103.59 20.5
-19 2 4 3 6.8
-19 2 4 0.9 5.5
-19 2 4 6.6 3.7
19 -2 -4 4.8 7.5
-19 2 3 179.08 16.6
-19 2 3 142.19 21.4
-19 2 3 250.97 21.3
19 -2 -3 187.18 26.5
-19 2 2 10.3 7.9
-19 2 2 18.7 6.2
19 -2 -2 15.5 8.8
-19 2 1 134.09 15.8
19 -2 -1 166.28 24.6
-19 2 0 129.09 15.3
19 -2 0 93.29 18.4
-19 2 -1 141.59 17.2
19 -2 1 151.88 22.1
-19 2 -2 16.4 7
19 -2 2 17.8 8.4
-19 2 -3 204.38 20.8
19 -2 3 121.39 19.4
-19 2 -4 6.9 5.9
19 -2 4 -1.3 4.9
19 -2 4 -0.4 4.1
19 -2 4 -3 3.9
-19 2 -5 96.49 14.6
19 -2 5 86.89 12.3
19 -2 5 88.49 13.1
-19 2 -6 -0.6 5.9
19 -2 6 -0.2 3.5
19 -2 6 10.4 6.9
19 -2 6 3.4 4.7
-19 2 -7 27.6 9.7
19 -2 7 44.3 10.2
19 -2 8 3.3 5.4
19 -2 9 34.9 10.4
-19 3 9 26 11.3
19 -3 -9 20.4 11.6
-19 3 8 4.7 7.2
19 -3 -8 16.6 12.2
-19 3 7 48.4 12.3
19 -3 -7 61.69 16.4
-19 3 6 7.5 6.7
19 -3 -6 13 10.4
-19 3 5 11.6 6.4
-19 3 5 6.9 7.3
19 -3 -5 14.8 10.6
-19 3 4 5.2 7.7
-19 3 4 7.9 4.3
19 -3 -4 15.1 10.1
-19 3 3 78.89 10.7
-19 3 3 56.89 15.4
19 -3 -3 90.29 18.4
-19 3 2 55.39 9.8
19 -3 -2 38.1 13
-19 3 1 98.09 13.4
19 -3 -1 86.49 17.3
-19 3 0 13.9 6.3
19 -3 0 24.6 9.7
-19 3 -1 104.49 14.1
19 -3 1 85.99 17.6
-19 3 -2 39.5 8.9
19 -3 2 56.09 13.7
-19 3 -3 82.69 12.8
19 -3 3 70.09 14.4
-19 3 -4 3.3 4.7
19 -3 4 7 5
19 -3 4 17.5 8.2
-19 3 -5 1.7 5
19 -3 5 -1.9 3.2
19 -3 5 1.3 4
-19 3 -6 -1.1 5.1
19 -3 6 7.2 5.1
19 -3 6 4.6 4
19 -3 6 0.3 6
-19 3 -7 42.1 10.9
19 -3 7 35.8 9.7
19 -3 8 4.8 5.3
19 -3 9 24.8 9.3
-19 4 8 -8.6 5.8
19 -4 -8 -5.2 9.7
-19 4 7 24.6 9.8
19 -4 -7 16.5 11.6
19 -4 -6 39.6 14.5
-19 4 5 74.39 13.5
19 -4 -5 69.69 17
-19 4 4 25 6.4
-19 4 4 25.4 10.6
19 -4 -4 18.9 11
-19 4 3 91.69 11.8
-19 4 3 54.59 14.5
19 -4 -3 69.79 16.9
-19 4 2 49.6 9.1
19 -4 -2 17.9 10.2
-19 4 1 54.69 9.7
19 -4 -1 40.1 12.9
-19 4 0 170.48 18.7
19 -4 0 127.29 21.4
-19 4 -1 30.9 8.3
19 -4 1 62.49 13.7
-19 4 -2 43.4 9.2
19 -4 2 34.9 10.9
-19 4 -3 55.29 10.5
19 -4 3 52.49 12.5
-19 4 -4 16.1 7.1
19 -4 4 20.6 6.6
-19 4 -5 77.09 13
19 -4 5 65.09 11.5
19 -4 5 48.6 9.6
-19 4 -6 18.3 7.6
19 -4 6 15.1 6.4
19 -4 6 18.8 8.6
19 -4 6 34.1 7
-19 4 -7 18.3 8.3
19 -4 7 16.8 7.3
19 -4 8 -3.2 4.9
-19 5 8 40.4 12.3
19 -5 -8 39.2 16.1
19 -5 -7 -11.7 9
19 -5 -6 82.99 19.5
-19 5 5 50.39 14.1
19 -5 -5 45.7 15.7
-19 5 4 259.37 20.9
-19 5 4 252.57 27.6
19 -5 -4 215.18 31.3
-19 5 3 16.9 6.2
-19 5 3 3.4 9
19 -5 -3 14.5 9.9
-19 5 2 145.79 17.2
19 -5 -2 154.18 25
-19 5 1 -4.1 4.5
19 -5 -1 2.6 7.3
-19 5 0 231.58 22.2
19 -5 0 269.97 32.7
-19 5 -1 7.8 6.1
19 -5 1 13.3 8.9
-19 5 -2 142.09 17.7
19 -5 2 128.29 20.6
-19 5 -3 6.5 5.2
19 -5 3 9 7.9
-19 5 -4 237.48 25
-19 5 -5 56.49 11.1
19 -5 5 45.2 9.2
-19 5 -6 68.49 12.8
19 -5 6 50.99 13.5
19 -5 6 75.89 11.9
19 -5 6 74.09 10.9
-19 5 -7 26.3 10
19 -5 7 11.5 6
19 -5 8 36.9 9.8
19 -6 -8 -4.7 8.4
19 -6 -7 37.6 15.3
19 -6 -6 11.8 12.2
19 -6 -5 24.1 12.3
-19 6 4 24.5 6.7
-19 6 4 14.9 10.2
19 -6 -4 34.2 12.6
-19 6 3 24.8 7.6
19 -6 -3 27.6 11.5
-19 6 2 26.2 7.5
19 -6 -2 4 8.9
-19 6 1 97.89 13.7
19 -6 -1 56.79 15
-19 6 0 2.8 5.3
19 -6 0 6.6 7.9
-19 6 -1 60.29 11.4
19 -6 1 67.29 15.9
-19 6 -2 10.8 6.2
19 -6 2 18.9 9.5
-19 6 -3 20.1 7.4
19 -6 3 17.9 9.1
-19 6 -4 22.8 8
-19 6 -5 19.9 8.1
19 -6 5 29.5 7.5
-19 6 -6 8.6 7.3
19 -6 6 3 4.8
-19 6 -7 34 9.9
19 -6 7 37.9 9.1
19 -6 8 9.8 6.2
19 -7 -7 16.1 12.7
19 -7 -6 21.7 13.9
19 -7 -5 -5.5 8.8
-19 7 4 -1.2 8.5
-19 7 4 15.6 6.5
19 -7 -4 26.2 13.6
-19 7 3 5 5.6
19 -7 -3 -1.4 9
-19 7 2 61.99 11.4
19 -7 -2 50.59 15.8
-19 7 1 11.2 6.2
19 -7 -1 23.9 11.4
-19 7 0 2.6 5.3
19 -7 0 9.3 9.3
-19 7 -1 10 6.4
19 -7 1 7.1 7.3
-19 7 -2 45.9 10.2
19 -7 2 38.7 12.1
-19 7 -3 4.8 5.7
19 -7 3 -3.2 6.2
-19 7 -4 9.2 6.5
-19 7 -5 5.7 5.8
19 -7 5 -4.7 3.1
-19 7 -6 32 10.1
19 -7 6 22.6 6.8
-19 7 -7 1.2 6.8
19 -8 -6 -4.1 8.9
19 -8 -5 6.8 12.3
-19 8 4 -2.3 11.1
19 -8 -4 6.4 9.5
-19 8 3 44.4 10.2
19 -8 -3 65.99 18.5
-19 8 2 -5.7 4.6
19 -8 -2 -0.1 8.5
-19 8 1 18.8 7.7
19 -8 -1 37.2 13.5
-19 8 0 144.79 17.7
19 -8 0 59.89 16.6
-19 8 -1 13.2 7.1
19 -8 1 41.2 13.4
-19 8 -2 -0.1 5.1
19 -8 2 1 6.7
-19 8 -3 34.6 9.2
19 -8 3 68.79 16
-19 8 -4 6.1 6.2
-19 8 -5 43.2 10.9
19 -8 5 12.8 5.8
-19 8 -6 -1.7 6.5
19 -9 -5 6.3 13
19 -9 -4 10.7 12
-19 9 3 11.3 7.2
19 -9 -3 6.9 11.9
-19 9 2 6 5.9
19 -9 -2 -11.8 6.6
-19 9 1 8 6.5
19 -9 -1 11.4 10.3
-19 9 0 -5.3 5.1
19 -9 0 6.6 9
-19 9 -1 4.6 5.3
19 -9 1 -6.1 5.8
-19 9 -2 11 6.9
19 -9 2 5.1 8
-19 9 -3 4.6 6
-19 9 -4 6.5 6.8
-19 9 -5 22.1 8.4
-19 9 -6 14 8.4
19 -10 -4 14.5 12
-19 10 3 27.8 9.4
19 -10 -3 25.2 14.5
-19 10 2 3.8 6.3
19 -10 -2 7.2 11.7
-19 10 1 -0.8 5.8
19 -10 -1 -1.2 8.6
-19 10 0 3.4 6.1
19 -10 0 -0.6 6.7
-19 10 -1 -1.8 4.9
19 -10 1 11.3 11
-19 10 -2 0.6 6.2
19 -10 2 -1.2 8.1
-19 10 -3 19.2 8.4
-19 10 -4 3.5 7.2
-19 11 3 30 9.9
19 -11 -3 33.2 16.4
-19 11 2 12.6 8.1
19 -11 -2 11.1 12.4
-19 11 1 9.4 6.6
19 -11 -1 4.8 10.1
-19 11 0 0.8 6.4
19 -11 0 4.1 10.2
-19 11 -1 -0.1 5.7
19 -11 1 4.2 8.9
-19 11 -2 9.5 8
19 -11 2 -0.2 8.8
-19 11 -3 40.2 11.9
-20 -11 1 23.1 8.4
-20 -11 1 30.9 17.2
20 11 -1 40 11.5
20 11 -1 46.5 15.7
-20 -11 0 1.2 5.3
-20 -11 0 17.9 14.5
20 11 0 26.9 9.4
20 11 0 7.8 9.6
-20 -11 -1 31.6 9.2
-20 -11 -1 31.9 14.8
20 11 1 52.79 12
20 11 1 19.5 11.1
-20 -10 3 19.1 14.6
-20 -10 3 11.6 5.8
20 10 -3 8.9 8.2
20 10 -3 14.1 11.3
-20 -10 2 3.5 13.1
-20 -10 2 10.5 5.9
20 10 -2 10.3 10.3
20 10 -2 13.5 8.4
-20 -10 1 12.2 13.8
-20 -10 1 2.8 5
20 10 -1 9.8 8.7
20 10 -1 10.1 7.4
-20 -10 0 8.7 6.1
-20 -10 0 17.5 12.8
20 10 0 4.5 8.3
20 10 0 2.4 6.6
-20 -10 -1 3.4 11.1
-20 -10 -1 7.5 6.5
20 10 1 8.1 9.3
20 10 1 -1.4 5
-20 -10 -2 2.4 6.6
-20 -10 -2 9.3 11.1
20 10 2 13.7 9.5
20 10 2 16.5 8.1
-20 -10 -3 -6.2 10.3
-20 -10 -3 6.8 6.9
20 10 3 23.4 8.5
20 10 3 14.5 10.3
20 9 -5 111.99 21.6
20 9 -5 40.7 14.7
-20 -9 4 36.1 15.8
20 9 -4 25.3 11.6
20 9 -4 36.2 11.2
-20 -9 3 35.4 17.6
-20 -9 3 17.5 6.3
20 9 -3 19.9 8.7
20 9 -3 34.9 13.3
-20 -9 2 13.3 13
-20 -9 2 7.6 5.3
20 9 -2 11.2 7.8
20 9 -2 10.4 9.7
-20 -9 1 -0.5 10.2
-20 -9 1 23.4 7.3
20 9 -1 18.2 7.9
20 9 -1 9.3 8.3
-20 -9 0 -3.5 9
-20 -9 0 -6.1 4.4
20 9 0 -1.1 5.2
20 9 0 -4 5.9
-20 -9 -1 9.8 5.8
-20 -9 -1 17.5 12.9
20 9 1 21.7 9.5
20 9 1 22.8 8.5
-20 -9 -2 9.2 6.7
-20 -9 -2 -7.7 10.1
20 9 2 2.9 7.7
20 9 2 10.4 7.1
-20 -9 -3 2.4 9.1
-20 -9 -3 19 8.2
20 9 3 17.9 10.3
20 9 3 25.3 8.9
20 9 3 19.3 8.5
-20 -9 -4 25.1 13.4
-20 -9 -4 39.6 10.2
20 9 4 29.2 8.8
20 9 4 12.2 10.5
20 9 4 37.8 10.5
-20 -9 -5 70.89 13.5
20 9 5 54.19 11.7
20 9 5 89.69 15.6
20 9 5 67.59 17.1
20 8 -6 4.6 9.2
20 8 -5 23.4 15.3
20 8 -5 20.7 11.2
-20 -8 4 51.79 16.4
20 8 -4 67.19 16.4
20 8 -4 66.69 13.6
-20 -8 3 57.69 18.1
-20 -8 3 58.49 9.9
20 8 -3 49.2 11.7
20 8 -3 56.49 15.5
-20 -8 2 42.2 17.6
-20 -8 2 54.39 9.8
20 8 -2 36 12.5
20 8 -2 45.9 10.8
-20 -8 1 72.89 11.7
-20 -8 1 45.6 15.6
20 8 -1 87.39 13.8
20 8 -1 67.19 16.4
-20 -8 0 -3.6 8.1
-20 -8 0 3.1 4.8
20 8 0 3.4 5.3
20 8 0 1.9 6.5
-20 -8 -1 71.09 11.9
-20 -8 -1 55.49 16.6
20 8 1 74.99 17.2
20 8 1 69.79 12.8
20 8 1 71.09 11.6
-20 -8 -2 70.69 12.3
-20 -8 -2 26.9 12.5
20 8 2 46.6 10.5
20 8 2 55.09 14.2
-20 -8 -3 49.1 10.8
-20 -8 -3 49.3 15.3
20 8 3 40.5 10.2
20 8 3 65.49 12.1
20 8 3 70.69 16.8
-20 -8 -4 57.79 16.1
-20 -8 -4 66.99 12.5
20 8 4 56.59 12.2
20 8 4 64.29 16.1
20 8 4 71.39 12.6
-20 -8 -5 39.4 10.3
20 8 5 43.1 14.2
20 8 5 56.39 11
20 8 5 39.5 11.4
-20 -8 -6 17.7 8.7
20 8 6 19.6 10.5
20 8 6 6.2 7.5
20 7 -6 6.2 9
20 7 -5 16.6 9.8
-20 -7 4 12.4 7.5
20 7 -4 -3.5 6.6
20 7 -4 3.9 6.6
-20 -7 3 41.9 8.1
-20 -7 3 18 11.4
20 7 -3 37.5 10.2
20 7 -3 22.1 10.7
-20 -7 2 17.1 6.4
-20 -7 2 6.2 12.2
20 7 -2 21.6 7.8
20 7 -2 1.5 7.2
-20 -7 1 32.9 13.7
-20 -7 1 17 6.6
20 7 -1 23.3 10.4
20 7 -1 31.9 9.2
-20 -7 0 -3.9 9.7
-20 -7 0 -3.8 4
20 7 0 -7.1 5.2
20 7 0 3.5 5.5
20 7 0 -2.6 4
-20 -7 -1 23.9 7.6
-20 -7 -1 28.6 12.2
20 7 1 16.5 9.9
20 7 1 11.9 6.2
20 7 1 12.9 6.6
-20 -7 -2 16.3 7.3
-20 -7 -2 11.9 10.5
20 7 2 18 7.6
20 7 2 22.7 7.2
20 7 2 11.4 8.6
-20 -7 -3 17.6 11.6
-20 -7 -3 18.8 7.4
20 7 3 23.9 7.9
20 7 3 31.3 8.8
20 7 3 26.2 11
-20 -7 -4 3.4 9.3
-20 -7 -4 -9.4 5.1
20 7 4 9.8 8.7
20 7 4 0.3 4.8
20 7 4 -1.9 5.1
-20 -7 -5 -1.4 5.9
-20 -7 -5 -2.3 9.5
20 7 5 -1.2 4.8
20 7 5 5.9 6.6
20 7 5 4.7 5.7
-20 -7 -6 1.9 7.1
20 7 6 19.5 8.4
20 7 6 16 10
-20 -6 7 19.2 9.7
20 6 -7 28.4 12
-20 -6 6 5.7 7.8
20 6 -6 34 13
-20 -6 5 4.6 6.7
20 6 -5 1.7 7.1
-20 -6 4 31.6 9.6
-20 -6 4 24.1 8.7
20 6 -4 37.5 10
20 6 -4 25.9 10.8
-20 -6 3 5.6 4.5
-20 -6 3 13.8 8.1
20 6 -3 2.1 5.9
20 6 -3 -4.1 7.2
-20 -6 2 56.59 9.6
-20 -6 2 45.1 15.5
-20 -6 2 57.39 11.6
20 6 -2 48.2 13.5
20 6 -2 36.9 8.9
20 6 -2 43.8 10.1
-20 -6 1 -5.7 3.7
-20 -6 1 11.6 11.9
20 6 -1 5.1 8
20 6 -1 -0.3 5.1
20 6 -1 2.2 4.2
-20 -6 0 0.5 8.4
-20 -6 0 -2.7 4
20 6 0 5.6 7.1
20 6 0 4.6 5.7
20 6 0 -1.9 3.4
-20 -6 -1 2.6 7.7
-20 -6 -1 6.3 5.9
20 6 1 0.9 4.8
20 6 1 3.3 6.5
20 6 1 6.6 5.2
-20 -6 -2 31.8 8.8
-20 -6 -2 37.6 13.3
20 6 2 41.7 9.3
20 6 2 29.2 8.1
20 6 2 53.89 14.3
-20 -6 -3 0.8 6
-20 -6 -3 2.3 8.8
20 6 3 5.1 7.1
20 6 3 2.2 5
20 6 3 2.2 5
-20 -6 -4 16 7.1
-20 -6 -4 12 9.9
20 6 4 15.6 7.7
20 6 4 32.8 8.6
20 6 4 16.5 9.8
-20 -6 -5 -9 8.3
-20 -6 -5 -6.2 5.4
20 6 5 6.4 7.7
20 6 5 1.9 4.4
20 6 5 9.3 6.8
-20 -6 -6 30.6 9.6
20 6 6 22.6 8.3
20 6 6 28.9 10
20 6 6 13.4 9.6
-20 -6 -7 13.2 8.8
20 6 7 55.69 15.5
20 6 7 13.6 8
-20 -5 7 7.2 7.8
20 5 -7 -0.4 8.2
-20 -5 6 -4.3 7
20 5 -6 1.3 7.3
-20 -5 5 -3.7 5.5
20 5 -5 1.7 8.2
-20 -5 4 13.1 7.3
-20 -5 4 7.5 6.9
-20 -5 4 21.6 7.2
20 5 -4 5.4 6.6
20 5 -4 28.4 12.1
-20 -5 3 33.8 7.4
-20 -5 3 34.7 10.2
20 5 -3 29.3 8.4
20 5 -3 15.6 9.4
-20 -5 2 25 8.8
-20 -5 2 43.1 14.4
-20 -5 2 41.2 7.9
20 5 -2 14.6 9.2
20 5 -2 21.9 8.2
-20 -5 1 12.2 10.2
-20 -5 1 1.6 6.1
-20 -5 1 1.5 4.4
20 5 -1 -2.9 5
20 5 -1 1.4 4
20 5 -1 2.5 6.8
-20 -5 0 247.38 30.5
-20 -5 0 176.58 19.5
-20 -5 0 189.48 20.2
20 5 0 189.68 18.1
20 5 0 176.78 26
20 5 0 181.48 20.5
-20 -5 -1 1.4 8.7
-20 -5 -1 5.3 5.4
20 5 1 4.5 7.2
20 5 1 0.5 3.9
20 5 1 2 5.3
-20 -5 -2 48.8 14.2
-20 -5 -2 32.6 8.7
20 5 2 26.3 7.4
20 5 2 25 7.6
20 5 2 38.9 12.1
-20 -5 -3 23.5 7.9
-20 -5 -3 25.8 10.8
20 5 3 26.3 7.4
20 5 3 19.5 9.1
20 5 3 21.6 7.6
-20 -5 -4 4.6 6.2
-20 -5 -4 14.4 10.1
20 5 4 4.6 7.2
20 5 4 3 5.1
20 5 4 11.5 5.7
-20 -5 -5 -1.8 6.5
20 5 5 4.1 6.4
20 5 5 1.6 4.5
20 5 5 0.5 5.3
-20 -5 -6 1 6.8
20 5 6 -2 5.3
20 5 6 -3.6 4.2
20 5 6 -2.1 4.2
-20 -5 -7 2.1 7.1
20 5 7 0.7 6.1
-20 -4 8 0.3 6.8
20 4 -8 20.2 14.4
-20 -4 7 7.3 7.7
-20 -4 7 34.7 9.8
20 4 -7 27.9 12.4
-20 -4 6 9.1 6.9
20 4 -6 19.9 11.2
-20 -4 5 6.5 6.4
20 4 -5 0.1 8
-20 -4 4 45.7 10
-20 -4 4 52.79 12.3
-20 -4 4 37.1 6.8
20 4 -4 41.8 12.7
20 4 -4 16.4 7.9
-20 -4 3 52.09 13.6
-20 -4 3 55.59 11.5
-20 -4 3 53.29 9.1
20 4 -3 47.9 13.5
20 4 -3 58.89 11.1
-20 -4 2 6.8 4.9
-20 -4 2 14.7 7.2
20 4 -2 9.9 8.7
20 4 -2 8.6 6.4
-20 -4 1 93.49 12.8
-20 -4 1 68.19 12.4
-20 -4 1 111.29 20.2
20 4 -1 109.19 14.9
20 4 -1 93.09 17.6
-20 -4 0 10.3 5.8
-20 -4 0 1.1 8.9
-20 -4 0 3.6 6.2
20 4 0 -2.3 5.7
20 4 0 3.4 4.2
20 4 0 -0.3 4.5
-20 -4 -1 59.39 11.1
-20 -4 -1 106.79 19.4
20 4 1 68.49 14.6
20 4 1 61.89 10.6
20 4 1 96.59 13.2
-20 -4 -2 10.4 5.9
-20 -4 -2 -0.6 7.7
20 4 2 4.7 5.2
20 4 2 14 7.7
20 4 2 7.6 5.2
-20 -4 -3 81.49 15.9
-20 -4 -3 43.6 9.8
20 4 3 46.5 9.6
20 4 3 51.69 13.6
20 4 3 47.8 10.1
-20 -4 -4 33.2 8.9
-20 -4 -4 42.2 12.8
20 4 4 35.7 9.4
20 4 4 43.3 12.2
20 4 4 24.2 7.4
-20 -4 -5 -3.6 5.2
20 4 5 2.9 7
20 4 5 4.7 5
20 4 5 3.4 5.7
-20 -4 -6 15 7.6
20 4 6 17.7 9.3
20 4 6 9.3 7.1
20 4 6 11.4 5.9
-20 -4 -7 19.6 9
20 4 7 21.8 8.9
20 4 8 5.8 6.6
-20 -3 8 20.2 9
20 3 -8 25.7 13.1
-20 -3 7 21.8 9.5
20 3 -7 12.3 9.1
-20 -3 6 11.8 8
20 3 -6 8.8 9.4
-20 -3 5 22.6 9.8
-20 -3 5 46.2 11.4
20 3 -5 22.3 10.4
-20 -3 4 34.9 6.8
-20 -3 4 59.09 12.6
-20 -3 4 38.8 10.6
20 3 -4 38.4 12.9
-20 -3 3 23.7 8
-20 -3 3 20 5.8
-20 -3 3 31.1 11
20 3 -3 30.1 8.5
20 3 -3 29.2 11.4
-20 -3 2 71.89 12.7
-20 -3 2 79.99 11.4
20 3 -2 69.49 15.2
20 3 -2 69.79 12.1
-20 -3 1 15.4 6.3
-20 -3 1 6.2 5
20 3 -1 12.9 6.3
20 3 -1 18.4 9.5
-20 -3 0 104.79 14
-20 -3 0 93.79 12.9
-20 -3 0 115.39 19.6
20 3 0 101.49 14.5
20 3 0 100.39 18.1
-20 -3 -1 20.2 10.7
-20 -3 -1 10.8 6.2
-20 -3 -1 9.4 5.2
20 3 1 16.8 6.9
20 3 1 18.7 9.5
20 3 1 4.7 4.4
-20 -3 -2 72.09 12
-20 -3 -2 88.09 17.5
20 3 2 62.59 14.1
20 3 2 52.99 9.9
20 3 2 84.09 12.2
-20 -3 -3 21.2 7.4
-20 -3 -3 24 10.2
20 3 3 15.4 6.7
20 3 3 7.7 5.1
20 3 3 15.6 6
-20 -3 -4 43.5 10.2
20 3 4 28.6 10.1
20 3 4 48.3 9.1
20 3 4 32.7 8.9
-20 -3 -5 21.3 8
20 3 5 28 10.6
20 3 5 34.7 9.8
20 3 5 27.9 7.5
-20 -3 -6 3.1 7
20 3 6 10.4 5.5
20 3 6 10.3 7.8
20 3 6 12.9 7.8
20 3 6 10.7 7.2
-20 -3 -7 10.6 7.9
20 3 7 4.4 5.7
20 3 8 5.7 6.6
-20 -2 8 14.6 9.5
20 2 -8 25.4 12.8
-20 -2 7 11.2 9
20 2 -7 24.5 12.6
-20 -2 6 66.79 13.9
20 2 -6 48.7 14.9
-20 -2 5 74.99 12.1
-20 -2 5 55.89 13
20 2 -5 67.89 16.8
-20 -2 4 91.79 15.6
-20 -2 4 98.49 11
-20 -2 4 85.69 14.2
20 2 -4 73.79 17.4
-20 -2 3 103.79 15.3
-20 -2 3 80.39 16.2
-20 -2 3 79.89 10.9
20 2 -3 87.09 18
-20 -2 2 111.59 14.2
-20 -2 2 127.79 16.5
20 2 -2 109.69 20
-20 -2 1 17.7 7
-20 -2 1 23.2 6.7
20 2 -1 35.9 8.9
20 2 -1 8.9 6.9
-20 -2 0 35.2 8.7
-20 -2 0 41.4 9.3
20 2 0 43.2 9.4
20 2 0 30.3 10.5
-20 -2 -1 19.1 7.3
-20 -2 -1 35 12.2
-20 -2 -1 16.7 7
20 2 1 25.3 10.3
20 2 1 23 7.3
-20 -2 -2 129.59 20.5
-20 -2 -2 135.59 16.7
20 2 2 113.09 18.9
20 2 2 98.19 14.5
20 2 2 131.19 15.9
-20 -2 -3 91.79 18.1
-20 -2 -3 71.69 12.1
20 2 3 81.49 12.6
20 2 3 98.29 13.5
20 2 3 59.09 14.2
-20 -2 -4 96.39 14.3
20 2 4 67.49 14.5
20 2 4 65.99 12
20 2 4 82.49 12.1
-20 -2 -5 59.39 11.5
20 2 5 53.89 9.6
20 2 5 52.09 11.2
20 2 5 71.09 15
-20 -2 -6 71.69 13.5
20 2 6 70.19 13.2
20 2 6 72.39 11.1
20 2 6 53.79 13.3
-20 -2 -7 12.7 8.7
20 2 7 23.9 9.1
20 2 8 27.7 9.8
-20 -1 8 14.1 8.7
20 1 -8 2.9 9.9
-20 -1 7 -1 7.7
20 1 -7 14.3 10.6
-20 -1 6 23.7 9.3
20 1 -6 24.5 11.2
-20 -1 5 40 11.3
-20 -1 5 38.2 9.1
20 1 -5 32.5 12.3
-20 -1 4 31.6 9.6
-20 -1 4 49.3 7.5
-20 -1 4 40.8 11.2
20 1 -4 30 11.5
-20 -1 3 140.49 14.6
-20 -1 3 128.99 20.4
-20 -1 3 118.49 16.9
20 1 -3 97.79 19.8
-20 -1 2 35.1 7.7
-20 -1 2 36.7 9.4
20 1 -2 22.2 9.6
-20 -1 1 8.5 6.5
-20 -1 1 7.7 5.1
20 1 -1 8 7.5
-20 -1 0 12 6.6
-20 -1 0 43.8 9.7
20 1 0 20.5 9
-20 -1 -1 8.7 5.9
-20 -1 -1 6.5 5.6
20 1 1 11.7 8
20 1 1 3.4 4.9
-20 -1 -2 11 7.2
20 1 2 30.9 7.7
20 1 2 32.7 11
20 1 2 24.2 7.2
-20 -1 -3 68.69 12.4
20 1 3 73.59 11.8
20 1 3 90.69 13.1
20 1 3 104.89 18
-20 -1 -4 24.1 7.9
20 1 4 12.6 7.7
20 1 4 35.2 8.5
20 1 4 20.9 6.6
-20 -1 -5 16.3 8.1
20 1 5 19.1 6.8
20 1 5 32.3 10
20 1 5 37.6 9
-20 -1 -6 14.5 8.1
20 1 6 32.6 7.2
20 1 6 21 7.5
20 1 6 23.1 10.1
-20 -1 -7 -4.6 6.3
20 1 7 10.2 7
20 1 8 9.8 7
-20 0 8 13.5 8.6
20 0 -8 5.4 8.5
-20 0 7 20.9 10.1
20 0 -7 42.1 14.5
-20 0 6 34.6 10.6
20 0 -6 35 12.8
-20 0 5 93.09 15.9
-20 0 5 102.59 14.6
20 0 -5 56.29 16.1
-20 0 4 5.6 6.8
-20 0 4 11.8 7.7
-20 0 4 -2.4 2.8
20 0 -4 9.5 8.4
-20 0 3 615.74 44.4
-20 0 3 568.74 40.6
-20 0 3 523.25 46.1
20 0 -3 612.44 50.49
-20 0 2 4.5 4.8
-20 0 2 5.6 6
20 0 -2 12.3 9
-20 0 1 12.2 6.8
-20 0 1 16.1 6.2
20 0 -1 17.6 9.3
-20 0 0 -3.2 4.3
-20 0 0 -0.4 5
20 0 0 0.5 5.7
-20 0 -1 22.2 7.5
-20 0 -1 15.4 6.8
20 0 1 9.2 7.7
-20 0 -2 6.6 6.3
20 0 2 0.8 4.1
20 0 2 3.5 6.6
-20 0 -3 286.97 27.6
20 0 3 309.87 31.2
20 0 3 387.66 28.9
20 0 3 344.37 27.6
-20 0 -4 4.1 6.1
20 0 4 0.1 4.4
20 0 4 -1.6 5.9
20 0 4 3.3 4.3
-20 0 -5 64.39 13.3
20 0 5 83.09 15.9
20 0 5 89.29 13.6
20 0 5 99.89 13
-20 0 -6 38.7 10.4
20 0 6 39.4 9.4
20 0 6 30.1 7.2
20 0 6 27.6 10.5
-20 0 -7 17.5 8.5
20 0 7 38.2 10.2
20 0 8 13.2 7.6
-20 1 8 -9.7 6.1
20 -1 -8 4.9 10.3
-20 1 7 30 10.3
20 -1 -7 5.7 9.2
-20 1 6 22.4 9.8
20 -1 -6 9.4 11.2
-20 1 5 27.6 8.5
-20 1 5 31.7 10.2
20 -1 -5 29.3 13.1
-20 1 4 41.6 10.7
-20 1 4 37.1 10.6
-20 1 4 41.5 6.9
20 -1 -4 6 9.5
-20 1 3 116.09 20
-20 1 3 114.89 13.7
-20 1 3 147.39 18.2
20 -1 -3 112.39 20.4
-20 1 2 43.4 8.7
-20 1 2 46.6 10.5
20 -1 -2 20 10.9
-20 1 1 8.3 6.4
-20 1 1 8.9 5.7
20 -1 -1 1.1 6.6
-20 1 0 27.5 7.6
-20 1 0 21.3 7.5
20 -1 0 29.8 11.1
-20 1 -1 4.5 5.7
-20 1 -1 8.6 5.8
20 -1 1 13 7.8
-20 1 -2 13.7 7.4
20 -1 2 17.5 7.8
-20 1 -3 93.49 14.4
20 -1 3 96.59 13.6
20 -1 3 84.49 16.2
20 -1 3 97.29 13.4
-20 1 -4 36.9 9.5
20 -1 4 28 10
20 -1 4 42.7 9
20 -1 4 36.3 7.9
-20 1 -5 22.5 8.5
20 -1 5 7.4 7.2
20 -1 5 57.49 10.7
20 -1 5 25.9 7.2
-20 1 -6 16.2 8
20 -1 6 21.2 9.1
20 -1 6 34.3 7.3
20 -1 6 15.7 6.4
-20 1 -7 2 6.7
20 -1 7 6.3 5.8
20 -1 8 16.2 7.3
-20 2 8 17.7 10
20 -2 -8 15.2 12.7
-20 2 7 25 10.4
20 -2 -7 24.6 12.5
-20 2 6 71.39 14.3
20 -2 -6 59.59 17.5
-20 2 5 95.09 15.6
-20 2 5 61.09 12
20 -2 -5 84.19 19.5
-20 2 4 97.39 15.6
-20 2 4 80.99 10.5
-20 2 4 92.69 16.1
20 -2 -4 73.29 16.9
-20 2 3 72.89 12.8
-20 2 3 73.79 15.4
-20 2 3 88.79 11.5
20 -2 -3 51.89 15.4
-20 2 2 116.29 16.5
-20 2 2 135.49 15.7
20 -2 -2 149.79 23.3
-20 2 1 27.5 7.4
20 -2 -1 38.4 13.5
-20 2 0 36.3 8.9
20 -2 0 41.6 12.2
-20 2 -1 17.3 6.7
20 -2 1 16.6 8.7
-20 2 -2 107.49 15
20 -2 2 83.49 16.2
-20 2 -3 64.69 11.7
20 -2 3 61.39 13.7
-20 2 -4 100.39 15.2
20 -2 4 103.19 14.8
20 -2 4 95.39 13.5
20 -2 4 108.89 18.2
-20 2 -5 81.59 14.1
20 -2 5 82.99 12.1
20 -2 5 93.49 13.7
-20 2 -6 83.29 14.5
20 -2 6 69.39 12.5
20 -2 6 51.29 13.1
20 -2 6 64.39 10
-20 2 -7 17.3 8.7
20 -2 7 24.2 8.1
20 -2 8 27.9 8.8
-20 3 8 11.5 8.9
20 -3 -8 1.6 10.3
-20 3 7 6.3 8
20 -3 -7 -2.3 8.6
-20 3 6 6.8 8.4
20 -3 -6 5.7 9.6
-20 3 5 34.1 10.2
-20 3 5 29.8 10
20 -3 -5 25.2 12.6
-20 3 4 52.39 13.6
-20 3 4 53.59 8.3
20 -3 -4 27 13.4
-20 3 3 10.1 9
-20 3 3 30.7 7.1
20 -3 -3 28.5 11.9
-20 3 2 77.99 11.7
20 -3 -2 68.59 16.3
-20 3 1 17.1 6.5
20 -3 -1 18.3 9.7
-20 3 0 106.39 14.4
20 -3 0 82.29 17.7
-20 3 -1 11 6.5
20 -3 1 10.2 7.7
-20 3 -2 57.69 11.2
20 -3 2 79.39 16.7
-20 3 -3 24.5 8
20 -3 3 30.2 10.6
-20 3 -4 36.4 9.9
20 -3 4 35.6 11
20 -3 4 47.8 9.6
-20 3 -5 49.3 10.7
20 -3 5 26.4 7.2
20 -3 5 30.6 8.2
-20 3 -6 4.6 6.9
20 -3 6 10.6 4.7
20 -3 6 5 5.3
20 -3 6 3.3 6.7
-20 3 -7 6.5 7.3
20 -3 7 4.8 6
20 -3 8 12.4 6.5
-20 4 8 8.5 9.4
20 -4 -8 2.6 8.8
-20 4 7 25.7 10.1
20 -4 -7 12.1 11.6
-20 4 6 12.2 8.7
20 -4 -6 -4.5 7.9
20 -4 -5 5.3 9.1
-20 4 4 30.1 6.9
-20 4 4 44.2 14
20 -4 -4 29.3 12.7
-20 4 3 43.1 12.9
-20 4 3 54.79 9.3
20 -4 -3 43.9 14.6
-20 4 2 10.1 5.8
20 -4 -2 21.4 11.7
-20 4 1 82.89 12.5
20 -4 -1 66.09 16.8
-20 4 0 -4.1 4.7
20 -4 0 1.9 7.6
-20 4 -1 81.39 13
20 -4 1 60.79 14.7
-20 4 -2 14.2 7.1
20 -4 2 7.6 7.2
-20 4 -3 45.7 10.5
20 -4 3 50.39 12.6
-20 4 -4 44.7 10.3
20 -4 4 31.6 10.3
20 -4 4 44 8.9
-20 4 -5 6.2 6.7
20 -4 5 4.4 4.8
20 -4 5 -1.2 4.6
-20 4 -6 1.7 6
20 -4 6 12.4 5.5
20 -4 6 8.5 5.5
-20 4 -7 8 7.7
20 -4 7 13.3 6.4
20 -4 8 -2.4 4.6
-20 5 7 0 6.9
20 -5 -7 -1.5 8.6
20 -5 -6 3.5 10.1
20 -5 -5 11 12.1
-20 5 4 14.4 6.3
-20 5 4 17.5 9.8
20 -5 -4 26 12.5
-20 5 3 34.6 8.5
20 -5 -3 31.9 12.9
-20 5 2 33.1 8.4
20 -5 -2 16.5 10.1
-20 5 1 1.5 4.8
20 -5 -1 7.2 9
-20 5 0 173.18 20
20 -5 0 175.58 26.3
-20 5 -1 3.4 5.2
20 -5 1 1.9 7.2
-20 5 -2 19 7.6
20 -5 2 13.6 8.5
-20 5 -3 26 7.9
20 -5 3 9.4 7.6
-20 5 -4 18.5 6.9
-20 5 -5 -0.1 6
20 -5 5 7.3 4.8
-20 5 -6 -3.7 5.1
20 -5 6 2.9 4.9
20 -5 6 -0.1 4.4
-20 5 -7 5.1 7.9
20 -5 7 -3.1 4.2
20 -6 -7 5.1 11.3
20 -6 -6 16.7 12.5
20 -6 -5 8.7 9.6
-20 6 4 14.8 10.3
20 -6 -4 14.5 10.7
-20 6 3 3.5 5.5
20 -6 -3 8 9.2
-20 6 2 33.1 8.8
20 -6 -2 51.89 15.8
-20 6 1 8.3 6
20 -6 -1 3.4 7.8
-20 6 0 -2.2 4.9
20 -6 0 1.2 6.6
-20 6 -1 7.4 6.6
20 -6 1 5.2 7.6
-20 6 -2 42.5 9.8
20 -6 2 55.59 14.4
-20 6 -3 3.8 5.8
20 -6 3 5.2 7.7
-20 6 -4 26.1 8.9
-20 6 -5 -1.2 5.4
20 -6 5 6.4 4.4
-20 6 -6 21.9 8.8
20 -6 6 16.9 6.7
-20 6 -7 24.2 9.4
20 -6 7 20.5 7.3
20 -7 -6 -0.7 10.6
20 -7 -5 11.1 11.5
-20 7 4 -1.6 7.7
20 -7 -4 -6.3 6.8
-20 7 3 33.6 9
20 -7 -3 34 14.2
-20 7 2 8.5 6.2
20 -7 -2 8.6 9
-20 7 1 2 5.7
20 -7 -1 21.4 12.4
-20 7 0 4.6 6.3
20 -7 0 -1.2 6.5
-20 7 -1 10 6.8
20 -7 1 7.4 8.3
-20 7 -2 20.4 8.3
20 -7 2 8.3 7.7
-20 7 -3 27.3 8.8
20 -7 3 37.2 11.6
-20 7 -4 4.8 6.4
-20 7 -5 0.7 5.4
20 -7 5 11.1 5.8
-20 7 -6 -3.1 6.2
20 -7 6 7.1 5.3
20 -8 -6 4.6 12.6
20 -8 -5 63.89 21
20 -8 -4 39.6 16
-20 8 3 77.39 13
20 -8 -3 59.39 17.7
-20 8 2 71.89 13
20 -8 -2 57.59 17.7
-20 8 1 88.29 14.7
20 -8 -1 92.09 20.8
-20 8 0 -4 5
20 -8 0 0.2 7
-20 8 -1 104.09 15.4
20 -8 1 75.49 16.9
-20 8 -2 35.7 9.7
20 -8 2 58.19 15
-20 8 -3 37.8 9.9
-20 8 -4 69.09 13.4
-20 8 -5 33.3 10.2
20 -8 5 38.4 9
-20 8 -6 7.2 7.2
20 -9 -5 33.6 15.5
20 -9 -4 28.5 16.2
-20 9 3 11.8 7.5
20 -9 -3 25.5 13
-20 9 2 10.2 7.5
20 -9 -2 33.2 15.6
-20 9 1 9.1 7.6
20 -9 -1 1.7 9.2
-20 9 0 2.1 6.2
20 -9 0 0.1 8.3
-20 9 -1 18.8 7.6
20 -9 1 4.9 9.3
-20 9 -2 3.4 6.1
20 -9 2 -5.7 6.9
-20 9 -3 19.5 8.1
-20 9 -4 24.6 9.7
-20 9 -5 58.69 13.1
-20 10 3 15.4 8.1
20 -10 -3 3.5 13.1
-20 10 2 6.7 7.1
20 -10 -2 -1.5 8.4
-20 10 1 8.4 7.5
20 -10 -1 11.4 11.5
-20 10 0 -2 5.7
20 -10 0 -6.1 8.8
-20 10 -1 5.3 6.6
20 -10 1 8.8 9.4
-20 10 -2 11.8 7.9
20 -10 2 8.7 9.1
-20 10 -3 3 6.9
-20 11 1 27.5 9.7
20 -11 -1 43 17.6
-20 11 0 18.4 8.9
20 -11 0 19.9 12.5
-20 11 -1 18.6 9.5
20 -11 1 45.5 16.2
-21 -10 2 8.4 5.4
-21 -10 2 6.3 14.1
21 10 -2 6 7.7
21 10 -2 0.6 8.2
-21 -10 1 62.59 19.3
-21 -10 1 85.09 13.4
21 10 -1 46.8 15.1
21 10 -1 52.49 12.9
-21 -10 0 -0.3 5.3
-21 -10 0 22.4 14.3
21 10 0 6.9 7
21 10 0 4.9 8.5
-21 -10 -1 48.6 18
-21 -10 -1 64.29 11.8
21 10 1 49.7 11.7
21 10 1 48.8 14.5
-21 -10 -2 10.8 13.1
-21 -10 -2 6.3 6.8
21 10 2 4.6 6.6
21 10 2 -0.4 8.5
-21 -9 4 12.9 11.7
21 9 -4 11.1 8.7
21 9 -4 10.8 10.9
-21 -9 3 -1 11.9
-21 -9 3 11.1 5.5
21 9 -3 9.6 8.4
21 9 -3 24.2 12.7
-21 -9 2 -8.3 12.8
-21 -9 2 12.9 5.8
21 9 -2 3.5 7.6
21 9 -2 7.6 10
-21 -9 1 5 4.9
-21 -9 1 3.6 12.8
21 9 -1 8.1 9
21 9 -1 9.5 7.5
-21 -9 0 -1.7 11.7
-21 -9 0 15 7.1
21 9 0 4.8 6.4
21 9 0 2.9 8.5
-21 -9 -1 2.4 5.7
-21 -9 -1 17 12.8
21 9 1 14.2 9.3
21 9 1 -3.3 5.5
-21 -9 -2 18.1 13
-21 -9 -2 9 6.9
21 9 2 1 6.2
21 9 2 1.4 7.4
-21 -9 -3 17.3 12.8
-21 -9 -3 15.7 7.8
21 9 3 16.2 7.1
21 9 3 23.1 11.7
21 9 3 7.1 7.2
-21 -9 -4 31.4 14.8
-21 -9 -4 13.5 7.6
21 9 4 7.6 7.3
21 9 4 12.2 9
21 9 4 3.3 5.9
21 8 -5 7.7 9.5
21 8 -4 14.1 10.8
21 8 -4 7.3 8.3
-21 -8 3 11.3 5.2
-21 -8 3 7.4 10.8
21 8 -3 1.8 7.5
21 8 -3 6.1 7.2
-21 -8 2 2.4 4.3
-21 -8 2 -14.9 11.2
21 8 -2 3.9 7.6
21 8 -2 6.9 7.3
-21 -8 1 13.6 13
-21 -8 1 15.7 6.8
21 8 -1 14 9.8
21 8 -1 13 7.4
-21 -8 0 -1.1 11.4
-21 -8 0 9.7 5.7
21 8 0 -0.4 5.4
21 8 0 -2.3 8.1
-21 -8 -1 12.5 11.3
-21 -8 -1 10.6 5.8
21 8 1 11.9 8.6
21 8 1 23.8 11
21 8 1 8.4 6.9
-21 -8 -2 3.6 10.2
-21 -8 -2 2 5.7
21 8 2 0.6 5.3
21 8 2 0.7 6.6
21 8 2 -1.5 5.1
-21 -8 -3 -4.9 9.4
-21 -8 -3 14.3 7.4
21 8 3 7.7 6.2
21 8 3 6.8 6.6
21 8 3 5.8 7.4
-21 -8 -4 -7 9.1
-21 -8 -4 10 7.1
21 8 4 -1.2 8.3
21 8 4 9.8 7
21 8 4 0 6.3
-21 -8 -5 -16 9.5
-21 -8 -5 14.6 7.9
21 8 5 4.3 8.3
21 8 5 4.6 5.8
21 8 5 1 6.3
21 7 -6 -1.8 8.2
21 7 -5 3.4 8.7
21 7 -4 17.9 10.2
21 7 -4 19.6 8.9
-21 -7 3 7.1 4.9
-21 -7 3 13.6 11.6
21 7 -3 11.8 7.7
21 7 -3 2.5 7.5
-21 -7 2 -7.3 10.3
-21 -7 2 -0.2 4.3
21 7 -2 15.1 9.5
21 7 -2 0.7 5.9
-21 -7 1 -9 9.5
-21 -7 1 39.3 8.3
21 7 -1 0.9 8
21 7 -1 23.5 7.9
-21 -7 0 36.4 14.4
-21 -7 0 18.4 7.4
21 7 0 10.7 6.2
21 7 0 18.3 9.6
21 7 0 22.7 7.2
-21 -7 -1 13.1 11.5
-21 -7 -1 30.6 8
21 7 1 19.2 7.1
21 7 1 21.5 8.3
21 7 1 24.1 10.7
-21 -7 -2 8.4 6.4
-21 -7 -2 13.4 10.9
21 7 2 10.2 6.2
21 7 2 3 5.6
21 7 2 0.1 7.3
-21 -7 -3 12.9 7.2
-21 -7 -3 6.9 9.5
21 7 3 -0.3 5.8
21 7 3 -2.9 7.5
21 7 3 1.6 5.6
-21 -7 -4 14.6 11.2
-21 -7 -4 10.6 7.8
21 7 4 15 7
21 7 4 14.9 9.9
21 7 4 25.3 8.7
-21 -7 -5 -2.8 9.7
-21 -7 -5 6.2 7.2
21 7 5 -7.2 5.6
21 7 5 12.7 9.3
21 7 5 10.3 6.2
-21 -7 -6 17.7 8.9
21 7 6 7.9 8.2
21 7 6 -9.1 6.3
-21 -6 6 29 10.5
21 6 -6 16.5 11.2
-21 -6 5 112.39 18.3
21 6 -5 86.19 18.8
-21 -6 4 -3 6.2
-21 -6 4 11.3 7.7
21 6 -4 5 7
21 6 -4 2 7.3
-21 -6 3 39.3 11
-21 -6 3 38.8 8.1
21 6 -3 40.4 9.8
21 6 -3 41.7 14.2
-21 -6 2 43.6 15.3
-21 -6 2 86.09 14.3
-21 -6 2 58.99 10.3
21 6 -2 61.19 15
21 6 -2 58.39 11.9
-21 -6 1 161.48 17.8
-21 -6 1 122.39 24.4
-21 -6 1 141.99 17.7
21 6 -1 178.98 19.7
21 6 -1 83.49 18.5
-21 -6 0 57.99 16.3
-21 -6 0 25.3 8
21 6 0 37.6 8
21 6 0 25.1 10.2
21 6 0 37.5 9.6
-21 -6 -1 143.89 16.3
-21 -6 -1 92.99 19.4
21 6 1 142.39 17.6
21 6 1 128.89 21.6
21 6 1 79.19 12.8
-21 -6 -2 44 14.6
-21 -6 -2 69.29 12.2
21 6 2 48.9 10.1
21 6 2 58.59 11.2
21 6 2 44.2 13.1
-21 -6 -3 28.1 8.6
-21 -6 -3 21.7 11.7
21 6 3 44 12.7
21 6 3 48.4 10.3
21 6 3 40.7 9.9
-21 -6 -4 0.9 6.7
-21 -6 -4 -0.4 9.2
21 6 4 -1.2 5.6
21 6 4 -3.2 6.1
21 6 4 2.1 5.2
-21 -6 -5 73.69 20.5
-21 -6 -5 95.29 14.7
21 6 5 102.49 14.9
21 6 5 94.29 18.2
-21 -6 -6 33.8 10.4
21 6 6 16.3 8.8
21 6 6 0 7.1
-21 -5 7 -3.4 6.6
21 5 -7 4.4 8.9
-21 -5 6 0.6 7.9
21 5 -6 11.4 10.2
-21 -5 5 -1.6 6.7
21 5 -5 -2.1 8.1
-21 -5 4 28.8 9.1
-21 -5 4 16.7 8.2
21 5 -4 27.5 8.8
21 5 -4 16.3 10.2
-21 -5 3 -0.6 6.7
-21 -5 3 12.9 5.5
21 5 -3 7.8 6.9
21 5 -3 16.9 9.8
-21 -5 2 3.1 6.4
-21 -5 2 -2 3.4
21 5 -2 7.2 6
21 5 -2 -6.7 5.5
-21 -5 1 3.5 9.5
-21 -5 1 0 4.6
-21 -5 1 0.4 6
21 5 -1 -2.3 7.1
21 5 -1 3.4 4.2
21 5 -1 1.5 5.4
-21 -5 0 -0.9 4.3
-21 -5 0 5.3 6.4
-21 -5 0 5.8 9.3
21 5 0 7.3 7.7
21 5 0 -3.5 3
21 5 0 5.3 5.4
-21 -5 -1 -3.5 9.7
-21 -5 -1 9.2 5.8
21 5 1 3.8 4.8
21 5 1 -2 5.8
21 5 1 -5.9 4.1
-21 -5 -2 24.3 10.5
-21 -5 -2 -3.3 5.1
21 5 2 3.2 4.7
21 5 2 -0.4 6.1
21 5 2 1.5 4.9
-21 -5 -3 19.2 7.6
-21 -5 -3 13.5 9.7
21 5 3 6.9 7.2
21 5 3 5.1 5.4
21 5 3 3.4 5.1
-21 -5 -4 7.1 10.5
-21 -5 -4 21.9 8.4
21 5 4 25.4 10.3
21 5 4 21.4 7.8
21 5 4 30.6 8.2
-21 -5 -5 0.4 6.1
21 5 5 1.3 5.3
21 5 5 0.5 5
21 5 5 5.6 6.6
-21 -5 -6 10.8 7.9
21 5 6 17.4 7
21 5 6 5.1 6.3
21 5 6 20.6 11.2
-21 -5 -7 3 8
21 5 7 -0.9 6.3
-21 -4 7 15.6 8.5
21 4 -7 12.2 10.5
-21 -4 6 -0.3 6.5
21 4 -6 1.1 8.2
-21 -4 5 15 7.6
21 4 -5 1 8.2
-21 -4 4 18 8.2
-21 -4 4 25.6 9.6
21 4 -4 12.4 10.2
21 4 -4 6.9 7
-21 -4 3 56.89 11.6
-21 -4 3 47 8.6
21 4 -3 48.3 10.6
21 4 -3 33.1 12.9
-21 -4 2 12.1 5.5
-21 -4 2 9.9 6.7
21 4 -2 1 6.6
21 4 -2 -2.2 5.6
-21 -4 1 190.68 21.1
-21 -4 1 187.38 20
21 4 -1 243.58 24.1
21 4 -1 185.08 26.8
-21 -4 0 23.3 7.5
-21 -4 0 13.8 11
-21 -4 0 19.3 8
21 4 0 15.5 7.1
21 4 0 21.7 6.4
21 4 0 16.4 9
-21 -4 -1 163.88 19.9
-21 -4 -1 215.18 28.7
21 4 1 183.28 20.8
21 4 1 196.28 18.6
21 4 1 192.08 26.4
-21 -4 -2 3.3 9.4
-21 -4 -2 16.1 5.9
21 4 2 7.7 5.5
21 4 2 7.3 7.3
21 4 2 3.8 4.5
-21 -4 -3 46.6 10.7
-21 -4 -3 27.7 12.3
21 4 3 53.89 10
21 4 3 49.7 9.8
21 4 3 27.4 10.6
-21 -4 -4 18 15.6
-21 -4 -4 14 7.3
21 4 4 16.1 9
21 4 4 7.9 6
21 4 4 12.2 6.2
-21 -4 -5 11.7 7.9
21 4 5 3.3 6.5
21 4 5 3.6 6.1
21 4 5 4.1 5.1
-21 -4 -6 -1.5 6.9
21 4 6 5.1 5.2
21 4 6 9 8
21 4 6 -3.4 5.6
-21 -4 -7 22.4 9.5
21 4 7 28.9 10.3
-21 -3 8 26.5 9.2
21 3 -8 27.8 13.4
-21 -3 7 -2.3 6.4
21 3 -7 13.2 9.7
-21 -3 6 68.89 13.7
21 3 -6 71.19 18
-21 -3 5 6.9 6.6
21 3 -5 2.5 7.7
-21 -3 4 77.09 14.9
-21 -3 4 71.59 13.4
21 3 -4 78.19 17.6
-21 -3 3 24.4 8.7
-21 -3 3 29.6 6.8
-21 -3 3 7.5 10.6
21 3 -3 27.7 8.5
21 3 -3 18.3 10.5
-21 -3 2 125.89 14.7
-21 -3 2 117.49 16.5
21 3 -2 113.09 15.8
21 3 -2 103.99 19.1
-21 -3 1 15.1 7.1
-21 -3 1 10.9 5.6
21 3 -1 8.6 5.9
21 3 -1 6.3 7.7
-21 -3 0 287.87 23.9
-21 -3 0 274.47 23.7
21 3 0 204.58 29.3
21 3 0 258.67 23.6
-21 -3 -1 25.1 11.8
-21 -3 -1 14.6 6.6
21 3 1 8.2 4.9
21 3 1 18.6 7.5
21 3 1 14 8.5
-21 -3 -2 94.19 18.7
-21 -3 -2 81.79 13.2
21 3 2 75.39 15.4
21 3 2 88.29 13.3
21 3 2 90.89 13.3
-21 -3 -3 18.5 11.1
-21 -3 -3 20.1 7.6
21 3 3 13.9 6.6
21 3 3 0.8 5.8
21 3 3 22.7 6.9
-21 -3 -4 74.89 13.4
21 3 4 70.09 11.9
21 3 4 72.79 15.7
21 3 4 74.69 12.6
-21 -3 -5 7.4 6.6
21 3 5 -2 4.8
21 3 5 3.1 4.7
21 3 5 0 6.5
-21 -3 -6 92.09 15.5
21 3 6 67.79 13.7
21 3 6 65.99 15.4
21 3 6 84.99 12.6
-21 -3 -7 -8 6.9
21 3 7 5.4 6.1
21 3 8 35.8 11.3
-21 -2 8 9.7 8
21 2 -8 24.5 13
-21 -2 7 28 10.6
21 2 -7 24.2 11.6
-21 -2 6 52.69 13
21 2 -6 66.79 17.1
-21 -2 5 14.8 8.4
21 2 -5 10.6 9.7
-21 -2 4 46.2 12.5
-21 -2 4 63.19 11
-21 -2 4 51.19 11.5
21 2 -4 63.59 15.9
-21 -2 3 36.3 10.8
-21 -2 3 16.6 10
-21 -2 3 29 6.9
21 2 -3 38.3 12.4
-21 -2 2 26.3 9.4
-21 -2 2 23.4 6.5
21 2 -2 15.3 9
-21 -2 1 17.8 6.7
-21 -2 1 12 7.6
21 2 -1 20.7 7.7
21 2 -1 16.7 8.8
-21 -2 0 9.5 5.6
-21 -2 0 14.6 7.2
21 2 0 9.2 7.7
21 2 0 8.6 5.8
-21 -2 -1 13.1 6.4
21 2 1 19.1 8.8
21 2 1 10.1 6.2
-21 -2 -2 19.5 10.9
-21 -2 -2 23 8
21 2 2 27.1 10.2
21 2 2 37.1 8.6
21 2 2 18.7 6.4
-21 -2 -3 20.5 7.5
21 2 3 16.2 6.5
21 2 3 6.6 7.2
21 2 3 6 5
-21 -2 -4 55.59 11.7
21 2 4 53.09 10.4
21 2 4 58.89 14.4
21 2 4 59.79 11.5
-21 -2 -5 21.6 8.3
21 2 5 7.8 6.2
21 2 5 17 6
21 2 5 8.9 7.8
-21 -2 -6 34.1 10.3
21 2 6 55.79 11.7
21 2 6 52.09 9.3
-21 -2 -7 16.3 9.4
21 2 7 10.7 7
21 2 8 30.6 10.2
-21 -1 8 22.3 9.7
21 1 -8 18.9 12.3
-21 -1 7 14.2 8.8
21 1 -7 17.1 12.1
-21 -1 6 -1.4 6
21 1 -6 10.4 9.7
-21 -1 5 -1.4 7.6
21 1 -5 3.9 8
-21 -1 4 19.2 8.5
-21 -1 4 21.7 6
-21 -1 4 20.8 9.8
21 1 -4 14.4 9.2
-21 -1 3 255.97 26
-21 -1 3 209.48 18.6
-21 -1 3 191.28 24.5
-21 -1 2 70.99 13.2
-21 -1 2 60.79 10.1
21 1 -2 56.69 15.2
-21 -1 1 273.17 23.5
-21 -1 1 272.77 25.1
21 1 -1 242.78 30.9
-21 -1 0 41.4 10.3
-21 -1 0 33.5 8.4
21 1 0 48 13.6
-21 -1 -1 261.47 22.4
-21 -1 -1 227.48 21.9
21 1 1 207.38 28.1
21 1 1 236.38 22.1
-21 -1 -2 52.09 10.7
21 1 2 31.3 8.3
21 1 2 35 8.1
21 1 2 39.7 12.1
-21 -1 -3 116.19 16.1
21 1 3 114.49 15
21 1 3 108.79 18.5
21 1 3 117.99 15.6
-21 -1 -4 30.3 8.7
21 1 4 14.5 6.3
21 1 4 20.6 9.4
21 1 4 10.5 5.9
-21 -1 -5 -0.7 5.9
21 1 5 5.2 5.1
21 1 5 6.7 5.4
21 1 5 5.4 6.8
-21 -1 -6 9.7 7.7
21 1 6 3 5.6
21 1 6 -2.2 4.1
-21 -1 -7 7.2 7.8
21 1 7 11.1 7.1
21 1 8 26.8 10
-21 0 8 -1.8 7.6
21 0 -8 0.3 9.3
-21 0 7 1.8 8
21 0 -7 1.9 9
-21 0 6 -3.1 6.3
21 0 -6 -2.2 7.7
-21 0 5 5.8 7
21 0 -5 -0.8 8.4
-21 0 4 8.4 7
-21 0 4 2.8 6.5
-21 0 4 -1.5 3.4
21 0 -4 -3.2 7.2
-21 0 3 3.5 4.2
-21 0 3 -1.3 5.4
-21 0 3 2.9 6.9
21 0 -3 13.4 9.2
-21 0 2 10.3 6.3
-21 0 2 3.6 4.7
21 0 -2 -4.6 5.4
-21 0 1 -0.4 4.8
-21 0 1 -4.9 5.3
21 0 -1 9.4 7.9
-21 0 0 -2.2 5.6
-21 0 0 -6.1 4.1
21 0 0 11.4 7.5
-21 0 -1 4.2 5.8
-21 0 -1 -1.9 5.7
21 0 1 -0.2 5.9
-21 0 -2 -1.8 5
21 0 2 -3.2 5.6
21 0 2 -4.9 4.2
-21 0 -3 4.7 6.2
21 0 3 -6.2 3.7
21 0 3 2.3 6.6
21 0 3 -0.6 3.6
-21 0 -4 -5.2 5.8
21 0 4 2.3 4.6
21 0 4 -2.2 4.8
21 0 4 0.6 4
-21 0 -5 -2 5.8
21 0 5 2.1 6
21 0 5 -0.8 3.9
21 0 5 0.2 4.4
-21 0 -6 -3.6 6.2
21 0 6 1.4 4.4
21 0 6 3.8 5.4
-21 0 -7 -4 6.6
21 0 7 -3 4.2
21 0 8 -2 5.5
-21 1 8 21.8 10.7
21 -1 -8 23.8 12.6
-21 1 7 12.9 8.4
21 -1 -7 11.7 10.5
-21 1 6 8.1 7.3
21 -1 -6 -2.1 7.8
-21 1 5 5.2 7.7
21 -1 -5 3.2 8.9
-21 1 4 33.3 7.8
-21 1 4 20.8 9
-21 1 4 26.4 9.5
21 -1 -4 52.79 15.1
-21 1 3 223.08 23.9
-21 1 3 191.08 23.9
-21 1 3 206.38 18.4
21 -1 -3 200.18 28.5
-21 1 2 48.7 11
-21 1 2 85.59 11.8
21 -1 -2 68.99 16.4
-21 1 1 303.27 24.4
-21 1 1 260.27 25
21 -1 -1 244.08 32.1
-21 1 0 84.19 13.1
-21 1 0 38.7 9
21 -1 0 32.5 11.8
-21 1 -1 217.08 23.1
-21 1 -1 236.48 21.6
21 -1 1 229.58 29.4
-21 1 -2 54.99 10.6
21 -1 2 40.5 11.8
-21 1 -3 93.29 14.8
21 -1 3 134.39 20.9
21 -1 3 124.79 15.7
21 -1 3 148.39 17.2
-21 1 -4 7.5 6.5
21 -1 4 33.4 7.9
21 -1 4 13.4 6
21 -1 4 25.7 9.8
-21 1 -5 -2.8 5.7
21 -1 5 8.6 4.9
21 -1 5 2.7 4.8
-21 1 -6 15.9 8
21 -1 6 1.3 4.6
21 -1 6 9.5 5.9
-21 1 -7 -6.6 6.6
21 -1 7 1.5 6
21 -1 8 23.7 9.1
-21 2 8 9.9 8
21 -2 -8 22.8 13.5
-21 2 7 17 8.7
21 -2 -7 11.3 11
-21 2 6 61.79 13.7
21 -2 -6 28.6 13.6
-21 2 5 19 9.6
21 -2 -5 10.3 11.4
-21 2 4 48.1 9.2
-21 2 4 59.59 13.2
-21 2 4 73.99 13.4
21 -2 -4 44.9 14.6
-21 2 3 6.8 8.4
-21 2 3 36 10
-21 2 3 26.7 7
21 -2 -3 32.7 13.3
-21 2 2 21.8 6.8
-21 2 2 40.7 10.6
21 -2 -2 20.6 9.8
-21 2 1 15.4 7.3
-21 2 1 19.2 7
21 -2 -1 16 11.2
-21 2 0 -0.1 5.4
21 -2 0 19.4 9.6
-21 2 -1 33.7 9
21 -2 1 15.7 8.6
-21 2 -2 23.4 8.4
21 -2 2 17.2 9.7
-21 2 -3 22.6 8
21 -2 3 18.6 8.3
-21 2 -4 33.7 9.4
21 -2 4 28 8
21 -2 4 51.39 9.9
21 -2 4 38.6 11.4
-21 2 -5 19.3 8
21 -2 5 18.7 6.9
21 -2 5 24.1 7.1
-21 2 -6 42.5 11.3
21 -2 6 39.5 9.7
21 -2 6 32.2 7.5
-21 2 -7 21.9 9.4
21 -2 7 3.9 6.3
21 -2 8 18.8 8.2
-21 3 8 23.8 11
21 -3 -8 27.4 14.4
-21 3 7 3.2 7
21 -3 -7 7 9.2
-21 3 6 108.89 17.9
21 -3 -6 78.09 19.4
-21 3 5 5.9 7.3
21 -3 -5 3.5 9.7
-21 3 4 78.89 14.9
-21 3 4 87.69 14.8
-21 3 4 83.69 17.3
21 -3 -4 37.2 15.4
-21 3 3 22.1 6.6
-21 3 3 -0.4 11.5
21 -3 -3 0.2 7.3
-21 3 2 101.39 14
21 -3 -2 113.59 21.6
-21 3 1 23.6 7.6
21 -3 -1 15.4 10.5
-21 3 0 275.07 24.6
21 -3 0 275.17 34.3
-21 3 -1 2 5.4
21 -3 1 5.8 7.2
-21 3 -2 80.49 13
21 -3 2 86.69 16.7
-21 3 -3 8 6.1
-21 3 -4 83.89 14.1
21 -3 4 72.09 15.5
21 -3 4 88.99 13.5
-21 3 -5 7.9 5.9
21 -3 5 2.8 4.8
21 -3 5 8.1 5.8
-21 3 -6 78.99 14
21 -3 6 52.99 9.8
21 -3 6 71.09 12.6
-21 3 -7 -5.7 6.1
21 -3 7 2.7 5.4
21 -3 8 42.2 10.5
-21 4 7 27.2 10.2
21 -4 -7 11.3 12.4
-21 4 6 2.2 7.5
21 -4 -6 7 10.6
21 -4 -5 3.7 10.4
-21 4 4 6.4 9.2
21 -4 -4 14.1 10.6
-21 4 3 45.6 9.2
21 -4 -3 35.8 13.3
-21 4 2 0.1 5
21 -4 -2 -1.9 7.3
-21 4 1 200.98 21.1
21 -4 -1 177.98 27.6
-21 4 0 19.3 7.8
21 -4 0 10.8 8.6
-21 4 -1 197.38 21.2
21 -4 1 158.48 24.5
-21 4 -2 0 5.6
21 -4 2 7.2 7.6
-21 4 -3 42.3 9.7
21 -4 3 24.4 9.8
-21 4 -4 27.4 9.4
21 -4 4 32.2 8.7
21 -4 4 10.8 8
-21 4 -5 13.7 7.5
21 -4 5 4 5.1
21 -4 5 4.5 4.9
-21 4 -6 4.7 6.6
21 -4 6 4 5.1
21 -4 6 4.1 5.2
-21 4 -7 17.6 8.9
21 -4 7 23.8 8
-21 5 7 -0.8 7.6
21 -5 -7 -0.8 10.8
21 -5 -6 31.6 14.6
21 -5 -5 9.7 11.8
-21 5 4 2.7 9.6
21 -5 -4 10.8 11.8
-21 5 3 4.2 5.6
21 -5 -3 1.9 8.9
-21 5 2 6.3 6
21 -5 -2 1.4 8.6
-21 5 1 -0.9 4.6
21 -5 -1 -6 6.9
-21 5 0 3.1 5.5
21 -5 0 5.7 7.6
-21 5 -1 -3.1 5.5
21 -5 1 -5.7 5
-21 5 -2 6.1 5.9
21 -5 2 7.3 7.6
-21 5 -3 19.7 8
21 -5 3 3.5 7.3
-21 5 -4 22.2 8.2
-21 5 -5 6 6.8
21 -5 5 -1.3 4.2
-21 5 -6 8.1 7.4
21 -5 6 24.7 10.7
21 -5 6 5.5 5
-21 5 -7 -0.4 7
21 -5 7 6.6 5.6
21 -6 -6 8.6 10.4
21 -6 -5 95.19 22.3
-21 6 4 -4.9 7.5
21 -6 -4 -7.7 8.3
-21 6 3 49.9 10
21 -6 -3 26.9 12.8
-21 6 2 63.69 12.1
21 -6 -2 54.89 16.9
-21 6 1 154.38 19.4
21 -6 -1 161.38 26.4
-21 6 0 23.2 8.3
21 -6 0 25.4 12.1
-21 6 -1 118.89 16.5
21 -6 1 129.79 21.9
-21 6 -2 54.39 11.7
21 -6 2 49.4 13.6
-21 6 -3 54.09 11.7
21 -6 3 41.7 12.4
-21 6 -4 -5.3 4.8
-21 6 -5 91.49 15.3
21 -6 5 88.79 13.7
-21 6 -6 11.7 8
21 -6 6 16.6 7.1
21 -7 -6 -2.8 11.2
21 -7 -5 4.1 10.8
21 -7 -4 7.3 9.3
-21 7 3 2.5 6.2
21 -7 -3 -5.5 7.2
-21 7 2 2.2 6.4
21 -7 -2 2.5 10.5
-21 7 1 32 9.5
21 -7 -1 16.1 11.6
-21 7 0 13.8 7.8
21 -7 0 15.4 9.7
-21 7 -1 33 10
21 -7 1 42.2 14.4
-21 7 -2 3.6 6.5
21 -7 2 4 7.6
-21 7 -3 0.7 6.1
21 -7 3 2.8 7.2
-21 7 -4 8.9 7.1
-21 7 -5 4.3 6.6
21 -7 5 5.2 5.1
-21 7 -6 3.6 7.1
21 -7 6 11.4 6
21 -8 -5 7.4 13.2
21 -8 -4 11.6 12
-21 8 3 2 6.1
21 -8 -3 1.8 10.1
-21 8 2 -4.4 5.5
21 -8 -2 0.6 8.6
-21 8 1 15.2 7.6
21 -8 -1 4.8 9.4
-21 8 0 -4.6 5.6
21 -8 0 27.8 12.7
-21 8 -1 7.8 6.7
21 -8 1 3.9 8
-21 8 -2 2.6 5.9
21 -8 2 -0.5 7.1
-21 8 -3 1.5 6
-21 8 -4 11.8 7.1
-21 8 -5 -1.1 6.9
21 -8 5 1.3 4.5
21 -9 -4 2.6 10.7
-21 9 3 12.6 7.5
21 -9 -3 7.4 12
-21 9 2 8.6 7.1
21 -9 -2 10.3 12.1
-21 9 1 16.9 8.3
21 -9 -1 9.7 9.8
-21 9 0 11.9 7.6
21 -9 0 -1.4 7.8
-21 9 -1 7.5 6.8
21 -9 1 -2.5 8.1
-21 9 -2 0 6.2
21 -9 2 0 8.3
-21 9 -3 6.7 7.2
-21 9 -4 11.8 7.8
-21 10 2 3 6.8
21 -10 -2 1.8 9.5
-21 10 1 75.09 14.1
21 -10 -1 38.3 15.4
-21 10 0 6.5 6.8
21 -10 0 -5.7 7.5
-21 10 -1 76.29 14.5
21 -10 1 46.3 15.6
-21 10 -2 7.3 8
21 -10 2 13.6 11.1
-22 -9 3 1.3 4.5
-22 -9 3 15.8 14.1
22 9 -3 -3.9 6.6
22 9 -3 3.1 9
-22 -9 2 2.2 5.1
-22 -9 2 6.1 14.5
22 9 -2 17.6 8.7
22 9 -2 6.3 9.2
-22 -9 1 8.8 14.2
-22 -9 1 9.9 6.4
22 9 -1 4.6 9.5
22 9 -1 0.1 7.4
-22 -9 0 -2.2 4.6
-22 -9 0 1.5 12.7
22 9 0 4.9 9.3
22 9 0 5.3 7.1
-22 -9 -1 -3.2 11.1
-22 -9 -1 6.7 6
22 9 1 1.4 7.1
22 9 1 1.5 6.1
-22 -9 -2 -0.3 11.4
-22 -9 -2 0.2 6
22 9 2 3 6.6
22 9 2 4.7 9
-22 -9 -3 1.2 11.4
-22 -9 -3 4 6.3
22 9 3 -0.5 5.8
22 9 3 1.2 8.4
22 8 -4 45.7 12.4
22 8 -4 53.39 16
-22 -8 3 4.8 4.9
-22 -8 3 5.3 11.7
22 8 -3 -2.3 8.4
22 8 -3 8.9 8
-22 -8 2 59.89 20.6
-22 -8 2 73.89 11.9
22 8 -2 56.19 12.7
22 8 -2 83.49 18.7
-22 -8 1 22.7 16.2
-22 -8 1 17.4 6.9
22 8 -1 -3.9 6.2
22 8 -1 2.2 8.8
-22 -8 0 55.89 10.9
-22 -8 0 51.69 17.8
22 8 0 65.79 13.1
22 8 0 89.89 19
-22 -8 -1 12 12.2
-22 -8 -1 2.4 5.8
22 8 1 2.7 6.1
22 8 1 11.3 8.9
-22 -8 -2 52.19 11
-22 -8 -2 55.79 17.3
22 8 2 40.3 10.7
22 8 2 29.5 8.9
22 8 2 25.9 11.7
-22 -8 -3 -9.7 9.5
-22 -8 -3 5.5 6.9
22 8 3 4.4 5.9
22 8 3 6 8.6
22 8 3 13.3 7.4
-22 -8 -4 40.4 10.9
-22 -8 -4 37.8 15.2
22 8 4 51.79 12.1
22 8 4 50.69 11.3
22 8 4 60.69 16.3
22 7 -5 52.29 16
22 7 -4 51.99 16.8
22 7 -4 72.19 14.3
-22 -7 3 25.3 7.1
22 7 -3 27.4 11.7
22 7 -3 31.8 9.7
-22 -7 2 27.5 14.5
-22 -7 2 45.3 9.6
22 7 -2 46.5 11.9
22 7 -2 33.5 13.2
-22 -7 1 14.5 6.7
-22 -7 1 5.6 13.1
22 7 -1 6 9
22 7 -1 17.5 8.3
-22 -7 0 44.6 9.7
-22 -7 0 63.99 17.3
22 7 0 21.7 7.3
22 7 0 57.29 11.8
22 7 0 36 11.7
-22 -7 -1 -1.7 11
-22 -7 -1 -1.1 4.7
22 7 1 10.3 6.6
22 7 1 11 8.4
22 7 1 9.2 6
-22 -7 -2 22.7 8.3
-22 -7 -2 28.9 13.6
22 7 2 43.5 13.5
22 7 2 20.5 7.7
22 7 2 30.5 9.5
-22 -7 -3 7.6 11.2
-22 -7 -3 6.6 6.9
22 7 3 16.6 11.4
22 7 3 22.4 8.4
22 7 3 20 8.1
-22 -7 -4 57.29 12.3
-22 -7 -4 60.89 16.8
22 7 4 67.49 16.3
22 7 4 67.79 12.7
22 7 4 37.9 11.1
-22 -7 -5 41 11.3
-22 -7 -5 43.7 17.9
22 7 5 48.7 14.9
22 7 5 27.7 10
22 7 5 72.19 12.5
-22 -6 6 -1 7.4
22 6 -6 8.1 10.4
-22 -6 5 13.4 10.2
22 6 -5 3.3 8.5
-22 -6 4 -1.9 7.5
22 6 -4 7.2 7.1
22 6 -4 6.6 7.8
-22 -6 3 18.8 9.1
-22 -6 3 4.7 5
22 6 -3 8.1 10.2
22 6 -3 16.5 8.2
-22 -6 2 13.8 5.6
-22 -6 2 13.3 8.2
-22 -6 2 0 10.5
22 6 -2 1.4 7.5
22 6 -2 4.1 5.8
-22 -6 1 -3.6 6.5
-22 -6 1 3.6 10.7
-22 -6 1 -1.3 4.2
22 6 -1 -5.9 5.9
22 6 -1 6.5 6.5
22 6 -1 2.6 5
-22 -6 0 19.7 14.6
-22 -6 0 9.9 6
22 6 0 11 5.9
22 6 0 40.5 9.9
22 6 0 3.4 7.8
-22 -6 -1 -3 8.8
-22 -6 -1 3 4.6
22 6 1 0.3 6.2
22 6 1 1.5 4.7
22 6 1 -1.7 5
-22 -6 -2 -4.4 9.5
-22 -6 -2 7.4 6.9
22 6 2 4.4 5.3
22 6 2 3.4 7.3
22 6 2 2 5.3
-22 -6 -3 2.8 6.4
-22 -6 -3 7.1 10.2
22 6 3 7 6.6
22 6 3 -3.5 4.8
22 6 3 14.7 9.3
-22 -6 -4 9.4 10.7
-22 -6 -4 -9.3 5.3
22 6 4 3 5.2
22 6 4 -1 4.7
22 6 4 23 11.5
-22 -6 -5 4.6 7.2
22 6 5 10.4 7.5
22 6 5 4.3 5.4
22 6 5 0.2 7
-22 -6 -6 16.1 8.8
22 6 6 -3.9 6.7
22 6 6 -6.8 5.8
-22 -5 6 -0.1 7.5
22 5 -6 7.3 9
-22 -5 5 4.7 7.6
22 5 -5 14.3 10
-22 -5 4 39.4 11.1
22 5 -4 32.9 12.2
22 5 -4 61.99 12.5
-22 -5 3 11.3 7.9
-22 -5 3 11.6 5.7
22 5 -3 10.7 9.1
22 5 -3 11.4 7.8
-22 -5 2 10.5 7.8
-22 -5 2 18.6 6.3
22 5 -2 1.7 8
22 5 -2 16.1 8
-22 -5 1 17.4 8.2
-22 -5 1 14 5.9
-22 -5 1 6.5 9.9
22 5 -1 -3.4 5.9
22 5 -1 2.3 4.4
22 5 -1 9.3 9.3
-22 -5 0 39.6 14.7
-22 -5 0 27.1 7.7
-22 -5 0 36.8 10.7
22 5 0 19.6 6.9
22 5 0 25.1 8
22 5 0 31.4 12.1
-22 -5 -1 7.1 5.7
-22 -5 -1 14.4 11.8
22 5 1 8.2 7.4
22 5 1 11.8 6.9
22 5 1 10 6
-22 -5 -2 10.2 11.4
-22 -5 -2 9.6 6.5
22 5 2 16.8 9.5
22 5 2 1.2 5.2
22 5 2 10.3 5.9
-22 -5 -3 29 13.4
-22 -5 -3 28.6 9.1
22 5 3 9.2 6.8
22 5 3 24.5 8.2
22 5 3 15.6 9.4
-22 -5 -4 31.6 9.4
-22 -5 -4 52.79 18.2
22 5 4 26.7 8.4
22 5 4 55.09 15
22 5 4 29.5 9.1
-22 -5 -5 2.5 6.5
22 5 5 4.6 7.1
22 5 5 7.6 6.2
22 5 5 10.7 8
-22 -5 -6 2 6.8
22 5 6 5.5 6
22 5 6 2.6 8
-22 -4 7 22.1 10.7
22 4 -7 20.6 12
-22 -4 6 13.6 8.8
22 4 -6 17.9 10.6
-22 -4 5 1.6 7.3
22 4 -5 4 8.2
-22 -4 4 30.5 10
-22 -4 4 12 7.1
22 4 -4 25.7 8.5
22 4 -4 9.6 9.3
-22 -4 3 30.7 7.1
-22 -4 3 13.8 7.8
22 4 -3 5 8.5
22 4 -3 34.6 9.8
-22 -4 2 13.7 6
-22 -4 2 23.4 8.6
22 4 -2 25.4 8.8
22 4 -2 7.7 9.4
-22 -4 1 5.8 7
-22 -4 1 -1.8 4.3
22 4 -1 8.1 8.1
22 4 -1 0.2 5.2
-22 -4 0 2.6 10.2
-22 -4 0 -1.1 4.8
-22 -4 0 3.2 6.5
22 4 0 2.8 4.6
22 4 0 4 6.7
22 4 0 1.4 5.6
-22 -4 -1 8.3 6.2
-22 -4 -1 4.4 10.3
22 4 1 -2.2 5.3
22 4 1 2.8 4.9
22 4 1 3.9 5.4
-22 -4 -2 22.6 13
-22 -4 -2 16.2 7
22 4 2 9.5 5.5
22 4 2 13.9 6.9
22 4 2 15 7.7
-22 -4 -3 13.3 7
-22 -4 -3 11.8 11.6
22 4 3 14.6 6.5
22 4 3 29.3 11
22 4 3 8.2 5.9
-22 -4 -4 4.4 6.6
22 4 4 12.7 7.3
22 4 4 16.5 8.8
22 4 4 10.6 6.4
-22 -4 -5 6.6 7.2
22 4 5 10.1 7.8
22 4 5 5.8 6.2
22 4 5 15.4 6.8
-22 -4 -6 -1.8 6.8
22 4 6 10 7.1
22 4 6 11.1 7.7
22 4 6 5 8
-22 -4 -7 25 10.9
22 4 7 13.9 8.6
-22 -3 7 1.1 8
22 3 -7 7.5 10.4
-22 -3 6 52.69 13.4
22 3 -6 44.6 14.4
-22 -3 5 -4.7 5.8
22 3 -5 4.4 10.2
-22 -3 4 20.5 8.4
-22 -3 4 14.9 8.7
22 3 -4 10.5 10.3
22 3 -4 11 7
-22 -3 3 -3.3 3.3
-22 -3 3 3.1 6.7
22 3 -3 -3.6 6.8
22 3 -3 -0.6 6.2
-22 -3 2 31.4 7.3
-22 -3 2 20.2 7.9
22 3 -2 17.2 9.7
22 3 -2 19.4 7.6
-22 -3 1 7.4 6.4
-22 -3 1 11.7 6.1
22 3 -1 7.7 6.3
22 3 -1 5.5 7.2
-22 -3 0 28.1 8.4
-22 -3 0 48.1 9.3
22 3 0 22.3 7.8
22 3 0 34.8 12.3
-22 -3 -1 60.29 16.9
-22 -3 -1 8.3 6
22 3 1 4 7.3
22 3 1 4.5 5.3
22 3 1 8 5.8
-22 -3 -2 26 8.4
-22 -3 -2 26 12.2
22 3 2 35.3 11.3
22 3 2 20.7 7.6
22 3 2 8.8 5.9
-22 -3 -3 9.8 13.8
-22 -3 -3 12.8 7.5
22 3 3 2 4.6
22 3 3 3.7 6.7
22 3 3 3.7 5.6
-22 -3 -4 11.6 7.1
22 3 4 19.8 7.4
22 3 4 3.3 5.2
22 3 4 3.6 8.3
-22 -3 -5 -0.2 6
22 3 5 0.6 6.6
22 3 5 0.4 4.7
22 3 5 -5.2 5.1
-22 -3 -6 36.2 11.1
22 3 6 50.79 10.1
22 3 6 49.5 11.4
22 3 6 34.7 13.9
-22 -3 -7 -3.2 7.1
22 3 7 8.9 7
-22 -2 7 -2.7 7.5
22 2 -7 -5.5 9.2
-22 -2 6 58.09 14
22 2 -6 31.3 13.6
-22 -2 5 32.5 10
22 2 -5 15.8 11.4
-22 -2 4 43.6 11.5
-22 -2 4 50.69 13.2
22 2 -4 81.89 18.9
-22 -2 3 17.1 7.9
-22 -2 3 24.6 6.7
22 2 -3 5.9 9.2
-22 -2 2 8.6 5.9
-22 -2 2 4.2 7.3
22 2 -2 9.9 8.6
-22 -2 1 27.8 9.7
-22 -2 1 23.8 7.4
22 2 -1 11.6 9.2
22 2 -1 23 8.4
-22 -2 0 3.9 5.4
-22 -2 0 29.9 8.9
22 2 0 9.2 6.5
22 2 0 17.7 9.7
-22 -2 -1 12.9 7.2
22 2 1 16.2 8.1
22 2 1 16.2 7.1
-22 -2 -2 10.5 7.2
22 2 2 13.1 6.3
22 2 2 7.7 5.6
22 2 2 3.1 6.4
-22 -2 -3 17.1 7.7
22 2 3 9.3 5.6
22 2 3 12 5.8
22 2 3 16.2 8.3
-22 -2 -4 50.89 10.7
22 2 4 46.8 10.1
22 2 4 34.7 8.9
22 2 4 56.39 14.4
-22 -2 -5 15.3 8.6
22 2 5 21.8 7.3
22 2 5 11.2 8.4
22 2 5 11.3 7.2
-22 -2 -6 45.7 12.1
22 2 6 52.79 11.8
22 2 6 42.9 9.5
-22 -2 -7 -3.3 7.3
22 2 7 0.8 5.4
-22 -1 7 22.4 10.4
22 1 -7 46.6 16.4
-22 -1 6 19.4 10
22 1 -6 8.6 11.8
-22 -1 5 30 10.7
22 1 -5 42 14.4
-22 -1 4 9.6 8.7
-22 -1 4 15.3 8.7
22 1 -4 1.8 7.5
-22 -1 3 103.09 15.8
-22 -1 3 86.79 11.9
22 1 -3 89.99 18.9
-22 -1 2 -1.5 6.5
-22 -1 2 3.3 4.9
22 1 -2 0.8 7.5
-22 -1 1 57.79 10.7
-22 -1 1 74.89 13.7
22 1 -1 98.49 18.4
-22 -1 0 3.8 5
-22 -1 0 7.6 7.3
22 1 0 9.5 8.3
-22 -1 -1 67.59 12.3
22 1 1 75.39 12.6
22 1 1 65.99 16.1
-22 -1 -2 6 5.7
22 1 2 -10.1 5.1
22 1 2 0 5.1
22 1 2 1.6 3.8
-22 -1 -3 70.49 12.5
22 1 3 54.39 10.8
22 1 3 49.5 10.4
22 1 3 47.7 13.1
-22 -1 -4 1.8 6.9
22 1 4 3.3 6.8
22 1 4 6.9 5.4
22 1 4 -3.4 4.5
-22 -1 -5 29.6 10.8
22 1 5 49.3 12.9
22 1 5 59.19 11.7
22 1 5 45.7 9.7
-22 -1 -6 17.5 10.1
22 1 6 13 6.1
22 1 6 18.9 7.8
-22 -1 -7 47 12.4
22 1 7 44.3 11.2
-22 0 7 40.3 12.2
22 0 -7 33.9 13.9
-22 0 6 112.19 18.7
22 0 -6 131.09 24.4
-22 0 5 58.79 13.1
22 0 -5 57.99 16.9
-22 0 4 87.79 15.5
-22 0 4 106.19 17.8
22 0 -4 97.39 20.8
-22 0 3 56.39 9.5
-22 0 3 63.59 13.2
22 0 -3 57.49 17.1
-22 0 2 371.16 29.2
-22 0 2 412.96 32.4
22 0 -2 264.97 36.2
-22 0 1 63.39 12.7
-22 0 1 55.09 10.3
22 0 -1 52.89 14.8
-22 0 0 50.29 11.4
-22 0 0 32.6 8.1
22 0 0 31 11.6
-22 0 -1 24.4 8.3
-22 0 -1 26.9 12.6
22 0 1 42.6 12.3
-22 0 -2 217.48 23.1
22 0 2 214.88 22.8
22 0 2 222.38 28.5
-22 0 -3 27.7 9.3
22 0 3 30.4 10.8
22 0 3 53.79 10.3
22 0 3 39.1 9.5
-22 0 -4 59.99 11.8
22 0 4 55.09 10.4
22 0 4 48.7 10.4
22 0 4 50.49 13.6
-22 0 -5 35.3 10.9
22 0 5 49.5 13.2
22 0 5 41.5 8.8
22 0 5 30.4 9
-22 0 -6 116.29 17.9
22 0 6 127.59 18.4
22 0 6 127.99 15.4
-22 0 -7 59.59 13.6
22 0 7 36.6 9.9
-22 1 7 28.9 11.7
22 -1 -7 63.99 17.5
-22 1 6 9.2 8.2
22 -1 -6 -2.2 9.3
-22 1 5 44 12.1
22 -1 -5 70.69 18.2
-22 1 4 12.3 7.8
-22 1 4 19.9 8.5
22 -1 -4 14.9 11.4
-22 1 3 63.19 10.3
-22 1 3 100.89 16
22 -1 -3 69.79 17.5
-22 1 2 6.1 6.6
-22 1 2 5.2 5.8
22 -1 -2 0.1 6.5
-22 1 1 101.79 13.5
-22 1 1 67.79 13.1
22 -1 -1 64.39 15.5
-22 1 0 3.4 6.8
-22 1 0 -0.4 5.1
22 -1 0 -1.7 6.7
-22 1 -1 111.99 15.4
-22 1 -1 69.39 12.7
22 -1 1 70.09 17
-22 1 -2 -2.3 5.7
22 -1 2 3 6.6
-22 1 -3 71.29 13
22 -1 3 53.79 10.2
22 -1 3 61.29 11.6
22 -1 3 41.8 12.5
-22 1 -4 1.7 6.8
22 -1 4 5.6 7.9
22 -1 4 6.4 5.4
22 -1 4 0.6 4.8
-22 1 -5 42.4 12
22 -1 5 50.39 10
22 -1 5 66.49 12.3
-22 1 -6 17.3 9.4
22 -1 6 16.1 7.6
22 -1 6 25.2 7.2
22 -1 7 47.8 11.5
-22 2 7 3.1 9.4
22 -2 -7 15.9 11.5
-22 2 6 56.79 14.7
22 -2 -6 55.89 18.2
-22 2 5 17.3 9.5
22 -2 -5 38.2 14.5
-22 2 4 51.49 12.8
-22 2 4 44.8 11.5
22 -2 -4 46.2 15.1
-22 2 3 24.9 7.1
-22 2 3 16.1 8.1
22 -2 -3 20 13.1
-22 2 2 0.8 5
-22 2 2 7.7 7.5
22 -2 -2 16.6 9.3
-22 2 1 11.2 7.8
-22 2 1 10 6.4
22 -2 -1 21.1 10.5
-22 2 0 4.2 7.3
-22 2 0 5 5.7
22 -2 0 6.4 8.1
-22 2 -1 9.8 7.5
-22 2 -1 28.7 8.6
22 -2 1 11.7 9.5
-22 2 -2 8.9 6.7
22 -2 2 1 6.2
-22 2 -3 7.6 6.4
22 -2 3 5.3 6.2
-22 2 -4 28.6 9.2
22 -2 4 39.4 12.7
22 -2 4 56.39 11.3
22 -2 4 55.19 10.3
-22 2 -5 17 8.7
22 -2 5 34.1 8.3
22 -2 5 20 7.3
-22 2 -6 48.8 12.1
22 -2 6 41.6 10.2
22 -2 6 47.8 9.2
-22 2 -7 -10.4 6.3
22 -2 7 6.1 5.6
-22 3 7 1.9 8.1
22 -3 -7 0.7 9.2
-22 3 6 46.4 13.7
22 -3 -6 50.29 17.6
-22 3 5 -0.2 7.5
22 -3 -5 -5.7 8.8
-22 3 4 -0.2 7.3
-22 3 4 15.3 9.6
22 -3 -4 4.5 9.7
-22 3 3 9.6 7.3
-22 3 3 0.7 5.2
22 -3 -3 1.6 8.9
-22 3 2 11.2 6.3
22 -3 -2 36.9 13.3
-22 3 1 4.8 6
22 -3 -1 -2 7.7
-22 3 0 38.5 9.3
22 -3 0 14.9 11
-22 3 -1 -0.8 5.3
22 -3 1 14.6 10.5
-22 3 -2 27.7 8.7
22 -3 2 22 9.8
-22 3 -3 3.3 6.5
22 -3 3 5.4 7.2
-22 3 -4 21.2 8.8
22 -3 4 12.8 8.5
22 -3 4 2.8 4.5
22 -3 4 -0.8 5.1
-22 3 -5 -7.4 5
22 -3 5 -3 4.3
22 -3 5 -0.9 4.5
-22 3 -6 29.4 10
22 -3 6 53.19 10.1
22 -3 6 56.69 11.1
-22 3 -7 4.3 8
22 -3 7 13.2 7.5
-22 4 7 18.2 9.5
22 -4 -7 -6.1 9
-22 4 6 17.1 9.5
22 -4 -6 7.4 10.4
-22 4 5 6.9 8.8
22 -4 -5 -1.8 8.9
-22 4 4 9.6 9.1
22 -4 -4 35 14.9
-22 4 3 16.4 6.7
22 -4 -3 33.8 13.5
-22 4 2 23.8 7.8
22 -4 -2 13.1 11.2
-22 4 1 15.2 7.4
22 -4 -1 1.4 8
-22 4 0 1.9 5.6
22 -4 0 9.3 9.2
-22 4 -1 5.2 6.1
22 -4 1 4.9 8.2
-22 4 -2 12.6 7.4
22 -4 2 18.1 9.4
-22 4 -3 7.7 6.6
22 -4 3 9.9 8.8
-22 4 -4 8.2 7
22 -4 4 24.3 7.4
-22 4 -5 2.9 6.3
22 -4 5 3.7 4.7
22 -4 5 11.5 6.7
-22 4 -6 -2.8 6.4
22 -4 6 15.9 7.3
22 -4 6 7.6 7.8
-22 4 -7 5.7 8.1
22 -4 7 8 5.8
-22 5 6 -4.3 7.3
22 -5 -6 -2.1 9.2
22 -5 -5 15.5 12.3
-22 5 4 39.8 18.9
22 -5 -4 39.7 14.6
-22 5 3 20.5 7.2
22 -5 -3 36.3 15.6
-22 5 2 1.4 5.5
22 -5 -2 17.4 10.8
-22 5 1 15.7 7.2
22 -5 -1 -0.7 8.5
-22 5 0 26.3 8.4
22 -5 0 10.1 8.9
-22 5 -1 11.4 7.2
22 -5 1 10.4 8.7
-22 5 -2 22.9 8.3
22 -5 2 3.6 8.5
-22 5 -3 20.5 8.4
22 -5 3 24.9 10.3
-22 5 -4 21 9.2
-22 5 -5 9.2 7.2
22 -5 5 12.7 6.5
-22 5 -6 11.3 8.6
22 -5 6 -7.9 3.9
22 -6 -6 4.7 10.2
22 -6 -5 19.1 13.3
22 -6 -4 4.3 9.4
-22 6 3 -9.6 4.5
22 -6 -3 -2.6 8.2
-22 6 2 0.3 6.1
22 -6 -2 6.6 9.8
-22 6 1 1.9 6.2
22 -6 -1 10.3 8.7
-22 6 0 11.2 7.3
22 -6 0 21.3 11.4
-22 6 -1 0.9 6
22 -6 1 6.8 7.9
-22 6 -2 3.4 6.1
22 -6 2 -5.2 6.6
-22 6 -3 13.7 7.3
22 -6 3 -7.9 6.4
-22 6 -4 2.7 6.3
-22 6 -5 -8.3 5.8
22 -6 5 5.8 5.4
-22 6 -6 9.2 7.5
22 -6 6 1.5 5.2
22 -7 -5 33 14.9
22 -7 -4 49.1 16.7
-22 7 3 16.7 8
22 -7 -3 27.1 13.8
-22 7 2 33.1 9.8
22 -7 -2 10.5 12.3
-22 7 1 2.7 6.1
22 -7 -1 1.9 7.1
-22 7 0 65.19 13.1
22 -7 0 46.2 15.2
-22 7 -1 18.1 8
22 -7 1 8.2 9.3
-22 7 -2 29.5 9.1
22 -7 2 14.4 8.8
-22 7 -3 11.8 7.2
22 -7 3 25.2 11.7
-22 7 -4 50.29 11.9
-22 7 -5 47.5 12.6
22 -7 5 53.49 10.9
22 -8 -4 45.4 17.7
-22 8 3 13.2 7.6
22 -8 -3 25.4 13.5
-22 8 2 36.5 11
22 -8 -2 41.4 14.6
-22 8 1 -6.7 5.4
22 -8 -1 2.5 8.6
-22 8 0 91.69 15.1
22 -8 0 50.99 16.1
-22 8 -1 11.8 7.3
22 -8 1 2.5 9
-22 8 -2 61.49 12.5
22 -8 2 37.3 13.3
-22 8 -3 5.5 6.8
-22 8 -4 48.6 12
-22 9 3 -3.1 6.7
-22 9 2 -5.7 6
22 -9 -2 1 9.6
-22 9 1 5.3 7.7
22 -9 -1 -11.6 6.2
-22 9 0 0.5 6.5
22 -9 0 2 8.5
-22 9 -1 10 7.4
22 -9 1 20.3 11.3
-22 9 -2 -8.2 5.6
22 -9 2 -3.1 6.7
-22 9 -3 3.5 7
-23 -9 0 26.9 14.9
23 9 0 21.8 9.9
-23 -8 3 4.6 11.1
-23 -8 3 7.2 5.2
23 8 -3 5 8
23 8 -3 0.7 8.8
-23 -8 2 -4.2 12.2
-23 -8 2 2.7 4.7
23 8 -2 -1 6.4
23 8 -2 -10.3 8.1
-23 -8 1 1.8 12.2
-23 -8 1 1.1 5.4
23 8 -1 3.3 8.2
23 8 -1 10.7 8.1
-23 -8 0 -5.1 11.3
-23 -8 0 19.4 7
23 8 0 6.2 7
23 8 0 10.1 10
-23 -8 -1 2.7 10.2
-23 -8 -1 3.9 5.9
23 8 1 6.4 8.7
23 8 1 5.1 7.2
-23 -8 -2 4.9 12.8
-23 -8 -2 -3.6 5.4
23 8 2 11.4 7.1
23 8 2 -2.3 5.8
23 8 2 -2.1 8
-23 -8 -3 16.7 12.8
-23 -8 -3 8.8 7.5
23 8 3 15.8 7.8
23 8 3 15.6 7.8
23 8 3 -2.9 7.2
23 7 -4 49 16
23 7 -4 36.2 11.3
-23 -7 3 26 7.1
23 7 -3 8.5 8.2
23 7 -3 3.3 8.4
-23 -7 2 56.69 18.4
-23 -7 2 36.8 8.7
23 7 -2 46.3 12.2
23 7 -2 39.3 14.5
-23 -7 1 -1.4 11.8
-23 -7 1 24.8 7.7
23 7 -1 9.9 8
23 7 -1 5.8 9.1
-23 -7 0 15.1 6.9
-23 -7 0 0.6 12
23 7 0 43.1 11
23 7 0 11.8 9.1
23 7 0 21.6 11
-23 -7 -1 7.4 12.8
-23 -7 -1 10.2 6.4
23 7 1 5.1 7.4
23 7 1 17 7.2
23 7 1 5.3 6.7
-23 -7 -2 36.2 9.9
-23 -7 -2 37.5 14.7
23 7 2 38.6 10.7
23 7 2 17.7 8.4
23 7 2 33.4 13.3
-23 -7 -3 5.4 11.4
-23 -7 -3 7.4 7
23 7 3 23.1 8.7
23 7 3 15.2 9.4
23 7 3 12.2 6.7
-23 -7 -4 41.3 10.5
-23 -7 -4 30 14.4
23 7 4 25.5 9.6
23 7 4 26.3 12.4
23 7 4 42.7 10.8
-23 -6 5 12.8 9.6
23 6 -5 31.6 14.2
-23 -6 4 -6.9 7.9
23 6 -4 20.2 11.4
23 6 -4 5 8
-23 -6 3 30.7 7.6
-23 -6 3 5.3 8.3
23 6 -3 25 11.8
23 6 -3 22.4 9
-23 -6 2 3.3 7.8
-23 -6 2 3.3 4.9
23 6 -2 -2 5.8
23 6 -2 1.6 7.3
-23 -6 1 5 10.5
-23 -6 1 12.5 6
-23 -6 1 1.1 6.8
23 6 -1 5.3 8.9
23 6 -1 4.1 7
23 6 -1 3.5 5.2
-23 -6 0 1.7 5
-23 -6 0 -1.1 10.4
23 6 0 9.2 7
23 6 0 1 7.4
23 6 0 -4.7 4
-23 -6 -1 9.7 6.3
23 6 1 -4.8 5.7
23 6 1 2.5 5.1
23 6 1 2.6 5.7
-23 -6 -2 2.3 10.4
-23 -6 -2 4.9 6.5
23 6 2 3.5 5.9
23 6 2 4.2 5.9
23 6 2 -7.4 5.1
-23 -6 -3 27 13.5
-23 -6 -3 21.1 8.9
23 6 3 8.3 6.8
23 6 3 24.2 8.5
23 6 3 16.3 10.6
-23 -6 -4 22 8.7
-23 -6 -4 7.4 13.9
23 6 4 7.4 6.9
23 6 4 17.3 9.7
23 6 4 10.6 7.2
-23 -6 -5 10.7 8.1
23 6 5 3.2 7.3
23 6 5 0.5 7.3
23 6 5 8.7 6.8
-23 -5 5 14.5 10.5
23 5 -5 -2.9 8.5
-23 -5 4 114.09 18.9
23 5 -4 108.89 21.6
23 5 -4 81.39 15.3
-23 -5 3 33.3 7.8
-23 -5 3 15.1 9.4
23 5 -3 13.2 10.5
23 5 -3 12.2 7.9
-23 -5 2 139.99 18.6
-23 -5 2 130.89 16.1
23 5 -2 124.49 18.1
23 5 -2 111.39 21.8
-23 -5 1 40.1 10.5
-23 -5 1 13.8 6.5
23 5 -1 16.6 9.9
23 5 -1 5.3 4.7
23 5 -1 7.9 7.5
-23 -5 0 55.99 16.8
-23 -5 0 25.3 7.9
23 5 0 37.1 9.7
23 5 0 52.69 14.7
23 5 0 20.3 7.3
-23 -5 -1 16.3 12.9
-23 -5 -1 17.9 7.7
23 5 1 23 10.8
23 5 1 12.7 6
23 5 1 4.5 6
-23 -5 -2 118.79 22.8
-23 -5 -2 146.09 18.2
23 5 2 98.19 15
23 5 2 128.39 23.2
23 5 2 97.59 15.7
-23 -5 -3 21.8 8.7
-23 -5 -3 20.4 12.8
23 5 3 20.1 7.3
23 5 3 18 7.5
23 5 3 19.5 10
-23 -5 -4 73.69 13.6
23 5 4 54.89 12
23 5 4 87.49 17.9
23 5 4 95.49 14.7
-23 -5 -5 -0.9 6.5
23 5 5 9.6 9
23 5 5 1.9 6.7
23 5 5 7.7 6.7
-23 -5 -6 90.19 16.6
23 5 6 121.59 22.1
-23 -4 6 -5.6 6.3
23 4 -6 10.3 9.9
-23 -4 5 0 6.2
23 4 -5 6.8 9.5
23 4 -4 7.1 7.4
23 4 -4 -0.7 7.3
-23 -4 3 10.9 5.3
-23 -4 3 -2.1 5.8
23 4 -3 8.3 8.6
23 4 -3 4.2 6.6
-23 -4 2 31.3 8
-23 -4 2 26.2 8.8
23 4 -2 41.6 10.3
23 4 -2 22.6 12.4
-23 -4 1 64.39 11.4
-23 -4 1 73.89 13.1
23 4 -1 68.59 17
23 4 -1 93.29 15
-23 -4 0 14.7 11
-23 -4 0 7 5.4
23 4 0 3.9 7.7
23 4 0 3.6 6.1
23 4 0 11.2 6
-23 -4 -1 139.39 23.2
-23 -4 -1 80.89 13.3
23 4 1 72.79 16.7
23 4 1 76.79 13.2
23 4 1 83.79 12.8
-23 -4 -2 20.6 13.9
-23 -4 -2 38.2 9.7
23 4 2 41 9.6
23 4 2 38.6 12.9
23 4 2 28.8 8.7
-23 -4 -3 10.9 12.6
-23 -4 -3 -1.3 5.5
23 4 3 3.1 5
23 4 3 4.5 5.4
23 4 3 -3.1 5.9
-23 -4 -4 3 6.6
23 4 4 12.1 8.9
23 4 4 3.7 5.9
23 4 4 8.5 6.6
-23 -4 -5 -4.9 6
23 4 5 7.2 8.5
23 4 5 9.3 6.6
23 4 5 11.5 6.5
-23 -4 -6 6.8 8.3
23 4 6 0.2 7.4
23 4 6 5.3 6.6
-23 -3 6 -0.2 7.2
23 3 -6 8.5 10.9
-23 -3 5 32.9 11.2
23 3 -5 2.8 9.4
-23 -3 4 6.8 7.5
23 3 -4 0 9.6
23 3 -4 1 6.6
-23 -3 3 1.1 6.8
-23 -3 3 7.2 5.3
23 3 -3 5.6 7.2
23 3 -3 14.2 10.6
-23 -3 2 11.5 7.3
-23 -3 2 4.1 5
23 3 -2 14.7 9.2
23 3 -2 -5.8 5.5
-23 -3 1 42.2 10.5
-23 -3 1 24.4 7.8
23 3 -1 34.9 11.9
23 3 -1 20.2 8.4
-23 -3 0 33.7 8.7
-23 -3 0 43.7 10.4
23 3 0 23.3 10.7
23 3 0 33.7 9.5
-23 -3 -1 34.2 9
23 3 1 14.6 6.7
23 3 1 24.3 10.1
23 3 1 25.7 8.3
-23 -3 -2 2.6 11.3
-23 -3 -2 0.5 5.4
23 3 2 3.7 6.9
23 3 2 5.1 5.3
23 3 2 10.1 5.8
-23 -3 -3 9.9 6.9
23 3 3 -4.1 4.4
23 3 3 3.3 6.4
23 3 3 10.4 6
-23 -3 -4 6.4 7
23 3 4 2.6 5.4
23 3 4 10.5 5.8
23 3 4 22 10.3
-23 -3 -5 17.2 8
23 3 5 11.3 8.3
23 3 5 11.4 7.2
23 3 5 11.2 6.5
-23 -3 -6 4.8 8.2
23 3 6 -2.3 5.7
23 3 6 5.8 6.5
23 2 -7 28 14.5
-23 -2 6 4.1 8.6
23 2 -6 4.8 9.2
23 2 -5 140.79 24.8
-23 -2 4 23.1 8.8
-23 -2 4 22.8 10.4
23 2 -4 4.6 7.9
-23 -2 3 125.59 15.2
-23 -2 3 154.88 19.8
23 2 -3 142.59 23.6
-23 -2 2 4.1 5
-23 -2 2 1.7 6.1
23 2 -2 -2.4 5.7
23 2 -2 3 8.1
-23 -2 1 17 8.4
-23 -2 1 17.6 6.9
23 2 -1 20.3 9.8
23 2 -1 9.5 7.1
-23 -2 0 29.2 8.2
-23 -2 0 18.7 8.4
23 2 0 9.3 7.6
23 2 0 3.7 6.1
-23 -2 -1 6.9 6
23 2 1 4.9 5.8
23 2 1 12.8 8.6
-23 -2 -2 2.1 6
23 2 2 8.3 5.8
23 2 2 5.8 4.9
23 2 2 5.9 8.2
-23 -2 -3 104.19 15.6
23 2 3 75.49 13.3
23 2 3 97.99 14.4
23 2 3 135.19 21.7
-23 -2 -4 3.9 7
23 2 4 12.3 6.8
23 2 4 11.4 8.3
23 2 4 9 5.8
-23 -2 -5 145.29 19.4
23 2 5 124.19 18.4
23 2 5 176.78 25.8
23 2 5 164.48 18.9
-23 -2 -6 11.1 8.9
23 2 6 11.7 6.5
23 2 6 10.4 7.2
-23 -2 -7 62.19 14.4
-23 -1 7 -0.6 8.3
23 1 -7 -0.2 10
-23 -1 6 2.9 9.8
23 1 -6 43.9 15.6
-23 -1 5 -3.3 6.4
23 1 -5 0.9 8.2
-23 -1 4 110.49 18.8
-23 -1 4 132.49 18.6
23 1 -4 89.49 19.4
-23 -1 3 24.9 9.9
-23 -1 3 7.9 4.9
23 1 -3 7.1 8.8
-23 -1 2 11.3 7.9
-23 -1 2 9.9 6
23 1 -2 35 13.1
-23 -1 1 21 9.1
-23 -1 1 58.79 10.7
23 1 -1 36.2 12.9
-23 -1 0 82.69 14.5
-23 -1 0 74.19 12.8
23 1 0 87.29 14.1
23 1 0 78.49 17.1
-23 -1 -1 51.59 10.6
23 1 1 38.9 10.5
23 1 1 28.3 11
-23 -1 -2 7.9 7
23 1 2 8.8 8
23 1 2 6 5.7
23 1 2 2.5 4.8
-23 -1 -3 2.5 7.2
23 1 3 12.5 9.4
23 1 3 4.7 5.2
23 1 3 9.2 5.8
-23 -1 -4 75.09 14.2
23 1 4 76.69 13.8
23 1 4 73.39 16.5
23 1 4 76.29 12.9
-23 -1 -5 6.1 7.5
23 1 5 -0.9 5.2
23 1 5 3.5 7.1
23 1 5 -3.2 4.6
-23 -1 -6 40.3 12.1
23 1 6 46 11.6
23 1 6 47.4 9.8
-23 -1 -7 11.8 9.7
23 1 7 15.3 7.5
-23 0 7 -6.5 6.6
23 0 -7 8.2 11.1
-23 0 6 -4.1 6.7
23 0 -6 13.4 11.3
-23 0 5 -1.4 7.1
23 0 -5 -3 8.8
-23 0 4 -3.2 7.3
-23 0 4 3.8 7.9
23 0 -4 -7.6 7.1
-23 0 3 -1.7 3.9
-23 0 3 3 7.4
23 0 -3 0.6 9
-23 0 2 -6.1 4
-23 0 2 9.3 7.3
23 0 -2 3 7.9
-23 0 1 4.8 6.9
-23 0 1 -1.6 4.7
23 0 -1 -3.1 6.7
-23 0 0 -6.9 4.2
-23 0 0 -6.8 5.3
23 0 0 -3.3 6.5
-23 0 -1 -7.2 4.8
23 0 1 -3.7 5.7
-23 0 -2 6.7 6.1
23 0 2 -0.1 5.1
23 0 2 11.1 9.4
-23 0 -3 -7.7 5.6
23 0 3 5.8 5.4
23 0 3 -3.1 4.3
23 0 3 0.6 6.8
-23 0 -4 1.5 6.8
23 0 4 1.6 7
23 0 4 3.3 4.1
23 0 4 -1.6 4.5
-23 0 -5 4.2 7
23 0 5 0.2 5.1
23 0 5 -1.6 4.6
23 0 5 -4.7 6.2
-23 0 -6 -2.4 7.6
23 0 6 4 6.2
23 0 6 1.5 5.1
-23 0 -7 -3.9 7.8
23 0 7 -5.4 4.7
-23 1 7 -6.7 7.4
23 -1 -7 4.9 10.3
-23 1 6 15 9.8
23 -1 -6 49 16.2
-23 1 5 1.6 7
23 -1 -5 7.1 12
-23 1 4 108.79 19.1
-23 1 4 102.19 16.6
23 -1 -4 88.49 20.5
-23 1 3 -1.9 6.3
-23 1 3 14.7 6
23 -1 -3 6 8.6
-23 1 2 3.4 5.4
-23 1 2 23.5 9.3
23 -1 -2 6.9 8.4
-23 1 1 44 9.6
-23 1 1 35.5 10.9
23 -1 -1 33.9 13.4
-23 1 0 67.79 13.6
-23 1 0 107.79 14.7
23 -1 0 77.49 18.1
-23 1 -1 26.1 8.4
23 -1 1 21.7 10.1
-23 1 -2 9.3 6.7
23 -1 2 7.1 7.9
-23 1 -3 2.6 6.4
23 -1 3 4.2 5.5
23 -1 3 3.8 4.4
23 -1 3 7.5 8
-23 1 -4 102.19 15.5
23 -1 4 50.59 10.9
23 -1 4 74.29 16
23 -1 4 76.99 13.1
-23 1 -5 13.7 8.6
23 -1 5 -2.8 4.5
23 -1 5 4.7 5.4
-23 1 -6 19.6 9.9
23 -1 6 17.3 7.1
23 -1 6 41 10
-23 1 -7 -9.1 7.5
23 -1 7 2.4 6.6
23 -2 -7 46.6 16.9
-23 2 6 8.8 9.3
23 -2 -6 -6.5 9
-23 2 5 192.48 24.4
23 -2 -5 117.59 24.3
-23 2 4 23 10.1
-23 2 4 26.3 11
23 -2 -4 5.7 9.8
-23 2 3 140.39 16.5
-23 2 3 121.39 18.8
23 -2 -3 149.49 26.7
-23 2 2 8.4 7.3
-23 2 2 4.4 5.4
23 -2 -2 19.8 11.4
-23 2 1 18.6 8.6
-23 2 1 20 7.7
23 -2 -1 17.5 9.6
-23 2 0 38.6 9.5
-23 2 0 24.7 9
23 -2 0 32.2 12
-23 2 -1 22.7 12.6
-23 2 -1 6 6.1
23 -2 1 4.5 7.2
-23 2 -2 0.3 6.2
23 -2 2 0.8 5.8
-23 2 -3 105.19 16.2
23 -2 3 101.59 18.8
-23 2 -4 -2.1 5.7
23 -2 4 16.1 9.8
23 -2 4 7.3 5.6
23 -2 4 13.7 6.1
-23 2 -5 130.79 18.4
23 -2 5 142.49 18.6
23 -2 5 140.29 17.4
-23 2 -6 10.1 8
23 -2 6 4.8 5.6
23 -2 6 19 6.8
-23 2 -7 31.3 10.6
-23 3 6 3.8 9
23 -3 -6 2.6 11.2
-23 3 5 29.5 11.3
23 -3 -5 -0.8 12
-23 3 4 10.3 8.2
23 -3 -4 5.9 9.5
-23 3 3 5.2 5.5
-23 3 3 0.7 7.9
23 -3 -3 16.9 12.4
-23 3 2 4 5.7
-23 3 2 -8.1 6.1
23 -3 -2 -3.6 6.8
-23 3 1 11.1 6.6
23 -3 -1 4.3 8
-23 3 0 36.3 9.2
23 -3 0 11 10
-23 3 -1 19.3 8.3
23 -3 1 17.6 9.1
-23 3 -2 6.3 6.7
23 -3 2 2.9 7.7
-23 3 -3 2.8 6.2
23 -3 3 2.1 7.6
-23 3 -4 8.3 7.6
23 -3 4 2.7 5.5
23 -3 4 6.7 7.4
23 -3 4 3.9 4.8
-23 3 -5 0 6.2
23 -3 5 13.4 6.5
23 -3 5 17.6 7
-23 3 -6 7.3 7.6
23 -3 6 3.4 4.9
23 -3 6 7.5 8.2
-23 4 6 2.3 8.7
23 -4 -6 -6.3 10.4
-23 4 5 -5.3 7.2
23 -4 -5 -5.3 8.4
-23 4 4 20.8 9.2
23 -4 -4 9.2 10.8
-23 4 3 4.5 5.9
23 -4 -3 12.1 9.2
-23 4 2 44.1 10.2
23 -4 -2 42.2 14.2
-23 4 1 74.49 12.8
23 -4 -1 61.39 16.3
-23 4 0 12.7 7
23 -4 0 0.5 7.9
-23 4 -1 83.79 14.3
23 -4 1 81.79 18.3
-23 4 -2 36.1 9.9
23 -4 2 26.7 11.5
-23 4 -3 1.4 6.3
23 -4 3 2.1 7.2
-23 4 -4 6.2 6.6
23 -4 4 12.6 5.9
-23 4 -5 3.8 7.6
23 -4 5 17.3 7.3
23 -4 5 8.6 6.1
-23 4 -6 -4.2 6.6
23 -4 6 0.4 5.3
23 -5 -5 5.4 11.8
23 -5 -4 50.39 16.9
-23 5 3 19.1 7.9
23 -5 -3 13.5 11.1
-23 5 2 138.89 17.8
23 -5 -2 110.79 23
-23 5 1 11.7 7.3
23 -5 -1 9.7 9.5
-23 5 0 43.2 10.4
23 -5 0 22.5 11.8
-23 5 -1 21.1 8.1
23 -5 1 11.6 9.1
-23 5 -2 111.19 16.9
23 -5 2 98.69 20.2
-23 5 -3 10.8 7.5
23 -5 3 15.5 9.4
-23 5 -4 68.29 13.8
23 -5 4 86.29 14
-23 5 -5 10.4 8
23 -5 5 2.9 5.9
23 -5 5 -1.2 4.5
-23 5 -6 62.99 13.8
23 -6 -5 7 11.1
23 -6 -4 3.2 11.1
-23 6 3 12.9 7.7
23 -6 -3 1.5 9.8
-23 6 2 3.5 6.3
23 -6 -2 10.9 11.5
-23 6 1 -6 5.3
23 -6 -1 7.9 9.2
-23 6 0 1 6
23 -6 0 -0.9 9.2
-23 6 -1 -1 5.6
23 -6 1 4.7 8.3
-23 6 -2 -0.6 6.4
23 -6 2 7 8.9
-23 6 -3 28.1 9.5
23 -6 3 11.4 8.8
-23 6 -4 16.7 9.3
-23 6 -5 1.6 7.2
23 -6 5 15.7 7.2
23 -7 -4 33.5 14.6
-23 7 3 13.9 7.9
23 -7 -3 20 12.5
-23 7 2 26.1 9.3
23 -7 -2 40.7 16.2
-23 7 1 -0.2 6.4
23 -7 -1 8.7 9.5
-23 7 0 12 7.9
23 -7 0 4.9 7.9
-23 7 -1 4.1 6.9
23 -7 1 2 8.7
-23 7 -2 30.6 10.2
23 -7 2 25.7 12
-23 7 -3 -0.6 6.8
-23 7 -4 28.2 10.7
-23 8 3 -0.1 7.4
23 -8 -3 6.6 12.1
-23 8 2 -1.3 6.9
23 -8 -2 -6.1 8.1
-23 8 1 6.7 7.4
23 -8 -1 2.9 9.4
-23 8 0 12 8.2
23 -8 0 15.8 11.9
-23 8 -1 11.2 7.5
23 -8 1 10.5 10.5
-23 8 -2 4.4 6.8
23 -8 2 4.1 9
-23 8 -3 5.6 7.5
-23 9 0 -3.6 6.9
-24 -8 0 4.5 5.9
-24 -8 0 8.3 14.4
24 8 0 5.8 9
24 8 0 7.3 7.6
-24 -8 -1 27.6 8.8
-24 -8 -1 15 15.2
-24 -7 3 -0.2 4.6
24 7 -3 7.3 10.5
24 7 -3 2.4 7.5
-24 -7 2 -1.3 4.9
-24 -7 2 -1.6 10.6
24 7 -2 4.3 9.7
24 7 -2 5.2 7.6
-24 -7 1 29.7 14.9
-24 -7 1 16.1 7
24 7 -1 38 13.7
24 7 -1 15.1 8.6
-24 -7 0 -7.7 10.1
-24 -7 0 12.8 6.6
24 7 0 4.9 7
24 7 0 9.1 9.2
-24 -7 -1 6.4 13
-24 -7 -1 19.5 7.7
24 7 1 17.1 8.7
24 7 1 20.8 12.3
24 7 1 10.1 7
-24 -7 -2 8.4 12.3
-24 -7 -2 5.3 6.4
24 7 2 12.6 9.8
24 7 2 3.9 6.2
24 7 2 0.3 6.7
-24 -7 -3 16.1 7.6
-24 -7 -3 -10.4 10.8
24 7 3 3 6.4
24 7 3 -1.3 7.8
24 7 3 3.2 6.2
-24 -6 4 21.2 11.1
24 6 -4 5.6 8.4
24 6 -4 12.3 11.3
-24 -6 3 18.4 6.4
-24 -6 3 9.9 9.3
24 6 -3 16.5 9.1
24 6 -3 7.5 9.5
-24 -6 2 8.7 7.7
-24 -6 2 12.9 6
24 6 -2 11.2 8.1
24 6 -2 8.1 9.4
-24 -6 1 10.1 13
-24 -6 1 22.1 7.8
24 6 -1 15.6 11
24 6 -1 19.7 8.7
24 6 -1 -0.2 5.4
-24 -6 0 -3.7 4.4
-24 -6 0 0.3 11.6
24 6 0 4.7 7.6
24 6 0 3.7 7.2
24 6 0 -0.1 5.5
-24 -6 -1 15.6 14.9
-24 -6 -1 5.3 6.5
24 6 1 6.9 5.7
24 6 1 17.9 8
24 6 1 5.6 7.6
-24 -6 -2 0.5 11
-24 -6 -2 4.3 6.6
24 6 2 3.4 7.8
24 6 2 5.7 6
24 6 2 -1.3 5.4
-24 -6 -3 19.5 13.4
-24 -6 -3 31.7 9.4
24 6 3 23.4 8.8
24 6 3 4.7 8.6
24 6 3 16.5 8.6
-24 -6 -4 5 7.4
24 6 4 14.3 8.3
24 6 4 18.6 8.5
24 6 4 15.3 10.2
-24 -5 5 -15.4 6
24 5 -5 -3.9 9.2
-24 -5 4 25.4 10.5
24 5 -4 34.1 15.1
24 5 -4 26.3 10.7
-24 -5 3 0.9 4.5
-24 -5 3 10 8.8
24 5 -3 8.2 8.1
24 5 -3 -5.1 6.9
-24 -5 2 14.2 9.6
-24 -5 2 13.7 6.5
24 5 -2 13.5 8.6
24 5 -2 4.6 9.7
-24 -5 1 8.8 8
-24 -5 1 6.3 5.8
24 5 -1 -0.3 6.2
24 5 -1 4.5 8.9
24 5 -1 9.6 6
-24 -5 0 4.3 5.7
-24 -5 0 6.8 13.2
24 5 0 0.6 7.5
24 5 0 1 5.7
24 5 0 3.6 5.3
-24 -5 -1 -5.2 9.6
-24 -5 -1 6.1 5.9
24 5 1 -6.3 6.5
24 5 1 2.8 6.6
24 5 1 4.2 5.4
-24 -5 -2 29.6 14.6
-24 -5 -2 13.7 7.8
24 5 2 19.3 7.8
24 5 2 7.5 6.6
24 5 2 39.2 14
-24 -5 -3 -2.6 10.4
-24 -5 -3 5.9 7.4
24 5 3 3.8 6.1
24 5 3 0 4.7
24 5 3 1.5 7.1
-24 -5 -4 16.9 9
24 5 4 30.3 9.6
24 5 4 26.1 12.3
24 5 4 25.4 9.2
-24 -5 -5 23.5 9.2
24 5 5 -1.2 5.6
24 5 5 0.8 7.2
-24 -4 5 30.1 10.7
24 4 -5 21.4 11.7
-24 -4 4 0.9 8.2
24 4 -4 11.8 10.1
24 4 -4 7.5 8
-24 -4 3 49.7 9.4
-24 -4 3 51.49 12
24 4 -3 47 14.7
24 4 -3 52.49 12.5
-24 -4 2 6.1 5.4
-24 -4 2 11.6 8
24 4 -2 13.1 9.9
24 4 -2 4 7.4
-24 -4 1 32.9 8.4
-24 -4 1 21.7 8.8
24 4 -1 28 11.7
24 4 -1 39.5 10.8
-24 -4 0 20.3 7.4
24 4 0 16 6.8
24 4 0 18.8 9.8
24 4 0 5.4 6.6
-24 -4 -1 33.3 14.9
-24 -4 -1 27 8.3
24 4 1 22.8 11.3
24 4 1 33.9 9.5
24 4 1 18.1 7.7
-24 -4 -2 18.1 13.5
-24 -4 -2 10.1 7.8
24 4 2 15.3 9.6
24 4 2 1 5.4
24 4 2 21.9 7.7
-24 -4 -3 41.7 11.2
24 4 3 50.39 10.9
24 4 3 37.7 12.4
24 4 3 42.3 10.9
-24 -4 -4 -4.7 6.7
24 4 4 7.7 6.6
24 4 4 2.3 5.9
24 4 4 10.2 8.1
-24 -4 -5 11.5 8.5
24 4 5 17.4 8.1
24 4 5 14 10
24 4 5 46 10.2
24 3 -6 18.1 13.2
-24 -3 5 22.3 10.3
24 3 -5 8 9.8
-24 -3 4 8.9 8.1
24 3 -4 10.2 8.6
24 3 -4 0.3 8.6
-24 -3 3 13.4 8.6
-24 -3 3 16.5 6.2
24 3 -3 21.2 9.5
24 3 -3 20.8 12.1
-24 -3 2 11.4 7.7
-24 -3 2 13.8 5.9
24 3 -2 -5.1 5.3
24 3 -2 2.2 8.4
-24 -3 1 27.2 9.6
-24 -3 1 39 9.2
24 3 -1 35 12.4
24 3 -1 41.2 10.5
-24 -3 0 -4.2 4.7
24 3 0 -3.1 5.1
24 3 0 6.8 9
-24 -3 -1 23 8
24 3 1 28.8 8.7
24 3 1 16.5 9.5
24 3 1 27.2 8.3
-24 -3 -2 5.3 7
-24 -3 -2 15.1 13.6
24 3 2 11.8 6.2
24 3 2 3.3 7.4
24 3 2 8.5 5.6
-24 -3 -3 26.3 8.3
24 3 3 25.9 8.3
24 3 3 17.7 10.4
24 3 3 0.6 4.9
-24 -3 -4 2.1 6.9
24 3 4 13.9 10.4
24 3 4 6 6.1
24 3 4 8.3 6.3
-24 -3 -5 9.6 7.7
24 3 5 8.7 7.5
24 3 5 9.8 6.1
24 3 5 14.5 9.5
-24 -3 -6 -3.3 7.3
-24 -2 6 3.2 9.1
24 2 -6 11.9 11.2
-24 -2 5 19.7 10.7
24 2 -5 7.2 9.2
-24 -2 4 -0.2 7
24 2 -4 9.7 9.9
-24 -2 3 10.5 5.5
-24 -2 3 8.1 8.4
24 2 -3 -3.5 8.6
-24 -2 2 26.1 7.9
-24 -2 2 50.89 12.2
24 2 -2 45 10.9
24 2 -2 33.6 13.4
-24 -2 1 15.2 8.9
-24 -2 1 14.7 6.9
24 2 -1 11.4 9.8
24 2 -1 29.7 9.4
-24 -2 0 11.2 6.7
24 2 0 27.8 8.5
24 2 0 25.5 11.1
-24 -2 -1 1.2 6
24 2 1 14.7 9.5
24 2 1 36.5 8.9
24 2 1 15.4 7.9
-24 -2 -2 8.6 7.3
24 2 2 28.5 8.1
24 2 2 32.6 12
24 2 2 25.1 7.8
-24 -2 -3 12 7.7
24 2 3 1.4 6.2
24 2 3 -3.6 4.4
24 2 3 0.1 5.2
-24 -2 -4 -2 6.7
24 2 4 -1.1 4.9
24 2 4 8.4 6.5
-24 -2 -5 2.1 7.7
24 2 5 7.3 5.8
24 2 5 3.8 7.3
24 2 5 4.9 5.6
-24 -2 -6 3.1 8.6
24 2 6 15.3 8.5
24 2 6 6.9 8.7
-24 -1 6 4.6 8.5
24 1 -6 15.4 12.4
-24 -1 5 11.8 9.2
24 1 -5 0.8 9.3
-24 -1 4 -1.6 7.1
24 1 -4 -4.2 7.3
-24 -1 3 13 6
-24 -1 3 17.4 9.8
24 1 -3 16.5 12.1
-24 -1 2 4.9 5.4
-24 -1 2 5.6 8.1
24 1 -2 0 7.2
-24 -1 1 1.2 5.4
-24 -1 1 9.6 7.7
24 1 -1 2.2 7.2
-24 -1 0 11.7 8.7
-24 -1 0 5 5.5
24 1 0 8.3 6.7
24 1 0 6.6 9.1
-24 -1 -1 2 5.9
24 1 1 6.1 7.9
24 1 1 12.8 7.1
-24 -1 -2 10.8 7.5
24 1 2 5.1 7.1
24 1 2 -2 5.2
24 1 2 2.9 5.1
-24 -1 -3 3.6 6.3
24 1 3 14.7 6.9
24 1 3 13 6.5
24 1 3 14.9 8.5
-24 -1 -4 9.9 7.9
24 1 4 -3.6 4.7
24 1 4 -0.5 4.8
24 1 4 5.4 6.8
-24 -1 -5 1.2 7.2
24 1 5 8.3 6.1
24 1 5 5.8 8.1
24 1 5 0.2 5.6
-24 -1 -6 17.6 10.2
24 1 6 26.3 9.8
24 1 6 15.6 7.9
-24 0 6 56.49 14.3
24 0 -6 39 15.1
-24 0 5 25.6 11.1
24 0 -5 13.4 10.9
-24 0 4 20.1 10
24 0 -4 28.3 12.4
-24 0 3 59.09 10.3
-24 0 3 52.39 13.2
24 0 -3 47.8 15.6
-24 0 2 78.69 12.7
-24 0 2 77.09 15.4
24 0 -2 101.39 20.5
-24 0 1 39.5 10.6
-24 0 1 20.7 7.9
24 0 -1 41 13.6
-24 0 0 43.6 11.6
-24 0 0 19.6 7.6
24 0 0 34.3 13.6
-24 0 -1 38.7 10
24 0 1 17.4 10.6
24 0 1 46.9 10.9
-24 0 -2 53.89 11.9
24 0 2 62.49 15.8
24 0 2 63.99 11.9
-24 0 -3 32.9 9.9
24 0 3 23.7 7.9
24 0 3 41.6 9.5
24 0 3 20.9 10
-24 0 -4 18.3 9.3
24 0 4 27.6 8.5
24 0 4 30.7 8.8
24 0 4 33.9 11.7
-24 0 -5 12.7 8.5
24 0 5 25.1 8.6
24 0 5 14.9 6.8
-24 0 -6 59.79 13.5
24 0 6 58.59 15
24 0 6 46 11.8
-24 1 6 8.1 9.1
24 -1 -6 13.4 11.6
-24 1 5 4.2 7.4
24 -1 -5 6.5 9.7
-24 1 4 -3.2 7.3
24 -1 -4 12.7 10.8
-24 1 3 22.7 7.3
-24 1 3 11.8 8.4
24 -1 -3 8.9 11.7
-24 1 2 0.6 5.4
-24 1 2 -9.7 6.3
24 -1 -2 -3.9 6.8
-24 1 1 16.5 7.2
-24 1 1 3.5 7.6
24 -1 -1 0.6 6.8
-24 1 0 4.4 5.9
-24 1 0 11.7 7.9
24 -1 0 7.8 7.5
-24 1 -1 -0.4 5.7
24 -1 1 9.9 8.2
-24 1 -2 1.7 6.4
24 -1 2 6.2 8.2
24 -1 2 -2.9 5.1
-24 1 -3 14.4 8.2
24 -1 3 7.4 8.7
24 -1 3 14.5 7.2
24 -1 3 4.3 4.8
-24 1 -4 2.9 7.1
24 -1 4 12.8 6.7
24 -1 4 1.1 6.8
24 -1 4 -6.1 4.7
-24 1 -5 14.5 8.8
24 -1 5 0.3 4.9
24 -1 5 1.7 5.3
-24 1 -6 9.8 8.7
24 -1 6 27.2 10.6
24 -1 6 18.1 7.4
-24 2 6 10.7 9.4
24 -2 -6 -2 9.6
-24 2 5 8.1 8.2
24 -2 -5 2.7 9.8
-24 2 4 10.7 9.9
24 -2 -4 -1.4 8.7
-24 2 3 -0.4 4.7
-24 2 3 5.6 7.5
24 -2 -3 -9.4 8.1
-24 2 2 24.1 10.6
-24 2 2 45.3 9.8
24 -2 -2 9 10.2
-24 2 1 18.1 7.3
-24 2 1 19.9 8.4
24 -2 -1 6.5 9
-24 2 0 23.2 9.4
-24 2 0 18.5 7.5
24 -2 0 10 10.2
-24 2 -1 10.4 7.3
24 -2 1 17.5 10
-24 2 -2 23 9
24 -2 2 9.5 8.6
-24 2 -3 3.3 6.8
24 -2 3 -0.6 5.3
24 -2 3 -1.5 4
24 -2 3 4 7
-24 2 -4 -7.1 6.6
24 -2 4 2.3 4.8
24 -2 4 4.6 5.6
24 -2 4 7.5 9.2
-24 2 -5 0.7 7.5
24 -2 5 7.1 6.1
24 -2 5 5.8 5.4
-24 2 -6 0.6 7.4
24 -2 6 4.7 5.6
24 -3 -6 30.1 15.8
-24 3 5 -0.6 7.8
24 -3 -5 -1.6 11.4
-24 3 4 16 10.3
24 -3 -4 -5.6 8
-24 3 3 21.3 7.2
-24 3 3 20.5 10.1
24 -3 -3 22.6 14.3
-24 3 2 11.1 7
-24 3 2 0.6 8.1
24 -3 -2 2.6 9.2
-24 3 1 23.3 8.6
-24 3 1 39.8 11.8
24 -3 -1 25.2 12.7
-24 3 0 12.5 7.4
-24 3 0 -0.1 6
24 -3 0 6.2 8.7
-24 3 -1 37 9.9
24 -3 1 27.8 12.6
-24 3 -2 4.5 7.4
24 -3 2 3.5 6.4
-24 3 -3 8.6 7.2
24 -3 3 17.6 9.5
-24 3 -4 -2.4 6.7
24 -3 4 6.7 6.3
24 -3 4 12.8 6.5
24 -3 4 0.4 7.7
-24 3 -5 16.4 8.7
24 -3 5 22.4 7.6
24 -3 5 4.9 5.6
-24 3 -6 7.7 8.7
-24 4 5 37.5 13
24 -4 -5 29.7 16
-24 4 4 3.8 8.5
24 -4 -4 -6.6 8.1
-24 4 3 49.4 10
24 -4 -3 48.9 16.7
-24 4 2 14 7.2
24 -4 -2 9.6 10.4
-24 4 1 32.7 10
24 -4 -1 34.1 14.3
-24 4 0 5.8 7
24 -4 0 -2.3 8
-24 4 -1 9.9 7
24 -4 1 34 12.9
-24 4 -2 6 7.3
24 -4 2 4.2 9
-24 4 -3 29.9 10.3
24 -4 3 53.49 13.6
-24 4 -4 2.3 7
24 -4 4 -3.5 3.7
-24 4 -5 14.3 9.3
24 -4 5 12.7 6.9
24 -4 5 6.6 5.5
-24 5 5 0.4 8.9
24 -5 -5 -10.2 8.9
24 -5 -4 28.6 15.8
-24 5 3 -6.5 5.1
24 -5 -3 6.6 11
-24 5 2 10.3 7.2
24 -5 -2 19 13
-24 5 1 14.5 7.6
24 -5 -1 -0.5 8.6
-24 5 0 8.9 7.8
24 -5 0 5.3 9.5
-24 5 -1 9.3 7.4
24 -5 1 9.4 9.5
-24 5 -2 33.1 10.4
24 -5 2 9.3 9
-24 5 -3 -6.3 5.7
24 -5 3 7 8.6
-24 5 -4 14.3 8.5
24 -5 4 20.1 7.9
-24 5 -5 1.8 7
24 -5 5 -4.3 5.5
24 -5 5 1.8 5.4
24 -6 -4 17.3 13.7
-24 6 3 10.8 7.4
24 -6 -3 20.4 13.6
-24 6 2 16.6 8
24 -6 -2 11.8 10.2
-24 6 1 0.3 6.4
24 -6 -1 -0.6 8.9
-24 6 0 9.6 8.2
24 -6 0 1.5 8.4
-24 6 -1 12.8 8
24 -6 1 0.3 8.2
-24 6 -2 7.2 6.8
24 -6 2 -2.2 7.7
-24 6 -3 17 8.6
24 -6 3 6.7 9.3
-24 6 -4 31.9 10.6
24 -6 4 11 6.2
-24 7 3 -2.5 6.6
24 -7 -3 28.5 14.9
-24 7 2 1.7 7.1
24 -7 -2 6.3 10.3
-24 7 1 25.2 9.6
24 -7 -1 16.9 12.6
-24 7 0 20.7 9.5
24 -7 0 12.2 10.2
-24 7 -1 15.5 8.3
24 -7 1 11.6 9.6
-24 7 -2 -6.9 5.9
24 -7 2 1.4 9.2
-24 7 -3 11.4 7.6
-24 8 1 4.1 7.7
-24 8 0 2.3 7.1
24 -8 0 8.7 10.4
-24 8 -1 50.19 12.8
-25 -7 0 2.7 5.6
-25 -7 0 -0.8 13.4
25 7 0 9 7.6
-25 -6 2 52.99 10.3
-25 -6 2 44.4 13.1
25 6 -2 26.9 12.6
25 6 -2 37.4 11.3
-25 -6 1 65.39 11.9
25 6 -1 36.7 15.6
25 6 -1 50.39 12.4
-25 -6 0 7.8 6.6
-25 -6 0 23.3 15.8
25 6 0 18.2 10.4
25 6 0 19.8 8.3
25 6 0 14.6 7
-25 -6 -1 31.8 15.9
-25 -6 -1 42.4 10.4
25 6 1 43.9 13.9
25 6 1 53.59 12.5
25 6 1 35.6 10
-25 -6 -2 51.59 18.3
-25 -6 -2 29.8 9.5
25 6 2 25.4 8.9
25 6 2 32 9.6
25 6 2 31.2 11.1
-25 -5 3 0.9 5.1
-25 -5 3 11.2 9.8
25 5 -3 11.2 8.7
25 5 -3 -3.4 8
-25 -5 2 16 6.7
-25 -5 2 5.8 8.5
25 5 -2 11.4 8.6
25 5 -2 8.8 9.4
-25 -5 1 20.1 7.5
25 5 -1 50.19 12.2
25 5 -1 13.2 7
25 5 -1 12.7 10.3
-25 -5 0 2.2 5
25 5 0 0.5 6.2
25 5 0 -1.9 5
25 5 0 17.9 10.8
-25 -5 -1 13.5 7.5
-25 -5 -1 25.1 15.7
25 5 1 0.4 5
25 5 1 16.7 10.1
25 5 1 10.3 7.3
-25 -5 -2 0.3 6.4
-25 -5 -2 -5.2 10.6
25 5 2 5.2 6.4
25 5 2 9.7 7.1
25 5 2 8.9 10.5
-25 -5 -3 7.1 7.3
25 5 3 1.8 6.3
25 5 3 1.1 7.9
25 5 3 8.8 6.6
-25 -5 -4 -1 6.7
-25 -4 4 7.4 8.9
25 4 -4 11.7 10.6
25 4 -4 31.9 10.8
-25 -4 3 32.3 8.1
-25 -4 3 31.9 10.9
25 4 -3 28.4 12.9
25 4 -3 35.7 11.4
-25 -4 2 44 11.7
-25 -4 2 59.29 10.5
25 4 -2 30.4 13.3
25 4 -2 34.7 11.1
-25 -4 1 60.79 11.7
-25 -4 1 49.5 12.6
25 4 -1 56.09 15.8
25 4 -1 56.19 12.7
-25 -4 0 27.3 8.5
25 4 0 34.3 9.1
25 4 0 22.8 8.9
25 4 0 24 11.7
-25 -4 -1 68.49 12.5
25 4 1 11.8 10.9
25 4 1 64.99 11.6
25 4 1 71.39 12.8
-25 -4 -2 58.59 11.8
25 4 2 33.1 13.2
25 4 2 33.1 9.3
25 4 2 38 10
-25 -4 -3 27.3 9.8
25 4 3 22.7 12.3
25 4 3 13.9 7.8
25 4 3 14.8 7.3
-25 -4 -4 8.5 8.6
25 4 4 8.2 6.7
25 4 4 6 6.4
25 4 4 5.8 9.1
-25 -3 5 44.8 12.9
25 3 -5 26.4 14.5
25 3 -4 3.2 8.1
25 3 -4 -2.2 9.1
-25 -3 3 25 9.9
-25 -3 3 12.5 5.9
25 3 -3 15.2 9.1
25 3 -3 5.8 9.3
-25 -3 2 58.29 13.1
-25 -3 2 31.2 8.7
25 3 -2 55.29 17.2
-25 -3 1 32.8 9
-25 -3 1 26.5 9.1
25 3 -1 32.8 10.1
25 3 -1 28.2 12.6
-25 -3 0 19.3 7.6
25 3 0 11.3 9.2
25 3 0 17.7 8.5
-25 -3 -1 13.8 7.5
25 3 1 34.1 12.9
25 3 1 9.3 6.4
25 3 1 29.9 9.3
-25 -3 -2 67.49 12.5
25 3 2 16 9.9
25 3 2 57.59 11.2
25 3 2 29.8 9.1
-25 -3 -3 1.2 6.7
25 3 3 4.6 7
25 3 3 19.5 7.5
25 3 3 13 7.3
-25 -3 -4 5 7
25 3 4 4.2 7
25 3 4 -0.6 7.3
25 3 4 -1.9 5.8
-25 -3 -5 27.9 10
25 3 5 17.6 11.3
25 3 5 32.2 9.6
-25 -2 5 5.1 9.5
25 2 -5 -1.3 10.5
-25 -2 4 24.7 11
25 2 -4 16.2 12.7
-25 -2 3 41 9
-25 -2 3 50.29 12
25 2 -3 29.3 12.7
25 2 -3 45.6 11.9
-25 -2 2 -4 6.3
-25 -2 2 2.3 5.6
25 2 -2 7.4 7.7
25 2 -2 0.6 9.1
-25 -2 1 5.7 7.5
-25 -2 1 1.5 5.6
25 2 -1 11.3 10
25 2 -1 13.3 8.2
-25 -2 0 -7.4 4.7
25 2 0 2.4 6.8
25 2 0 8.1 9
-25 -2 -1 -5.7 5.4
25 2 1 1.2 4.9
25 2 1 4.9 7.8
25 2 1 30.5 9.2
-25 -2 -2 7.3 7.5
25 2 2 -1 5.3
25 2 2 -3.5 6.5
25 2 2 -0.5 4.7
-25 -2 -3 17 8.9
25 2 3 19.4 7.1
25 2 3 27.1 11.3
25 2 3 7.5 6.3
-25 -2 -4 34.5 10.6
25 2 4 11 6.9
25 2 4 21.8 11.1
25 2 4 8.7 7
-25 -2 -5 12.7 9
25 2 5 12 9.8
25 2 5 19.9 7.5
25 2 5 12.8 7.5
-25 -1 5 25 10.4
25 1 -5 41.9 15
25 1 -4 101.79 21.2
-25 -1 3 88.89 15.9
-25 -1 3 90.09 12.9
25 1 -3 86.19 20.9
-25 -1 2 18.9 7.7
-25 -1 2 19 10.1
25 1 -2 13.7 9.8
-25 -1 1 15.2 7
-25 -1 1 29 10.2
25 1 -1 4.6 9.1
-25 -1 0 34.8 9.3
25 1 0 21.8 11.2
25 1 0 19.4 8.9
-25 -1 -1 11.6 7.5
25 1 1 9.8 7.3
25 1 1 2.1 8.1
-25 -1 -2 8.7 6.9
25 1 2 5.4 5.8
25 1 2 22 10.9
25 1 2 7.6 5.6
-25 -1 -3 47.8 12.1
25 1 3 41.8 14.3
25 1 3 46.6 10.8
25 1 3 49.4 11.5
-25 -1 -4 89.09 15.4
25 1 4 84.49 17.8
25 1 4 69.09 13.1
25 1 4 66.09 12.4
-25 -1 -5 19.1 10.5
25 1 5 18.1 8.1
25 1 5 26.3 11.5
25 1 5 27.7 8.4
-25 0 5 1 7.5
25 0 -5 9.6 11.2
-25 0 4 -1.1 8.2
25 0 -4 1.2 10.2
-25 0 3 8.2 9.1
-25 0 3 -2.7 4.6
25 0 -3 -6.2 7.4
-25 0 2 3.2 5.4
-25 0 2 2.3 8.3
25 0 -2 5.1 8.7
-25 0 1 -6.4 7.4
-25 0 1 -0.6 5.7
25 0 -1 6.7 9.1
-25 0 0 4.7 6.4
25 0 0 2.1 8.2
-25 0 -1 -4.5 5.1
25 0 1 -0.2 6.1
25 0 1 0.4 6.8
-25 0 -2 -1.3 5.9
25 0 2 -6.7 6.6
25 0 2 -3.7 4.2
25 0 2 9.1 5.6
-25 0 -3 -12.2 6.2
25 0 3 1.1 7.3
25 0 3 3 4.9
25 0 3 0.8 5.8
-25 0 -4 -11.6 6.9
25 0 4 -2.1 4.4
25 0 4 6.4 9
25 0 4 -1.8 5.3
-25 0 -5 -15.2 6.2
25 0 5 9.3 5.9
25 0 5 3.8 5.4
-25 1 5 37.2 12.3
25 -1 -5 25.5 14.3
-25 1 4 112.89 18.7
25 -1 -4 102.69 22.8
-25 1 3 74.49 15.3
-25 1 3 80.39 12.2
25 -1 -3 55.19 16.8
-25 1 2 7.9 8.9
-25 1 2 22.1 7.6
25 -1 -2 17.5 10.9
-25 1 1 21.4 8.2
-25 1 1 19.5 9.4
25 -1 -1 12.7 10.9
-25 1 0 29.1 9
-25 1 0 39.5 12.3
25 -1 0 13.5 9.5
-25 1 -1 12.9 8
25 -1 1 8.7 8.2
-25 1 -2 9.5 8.1
25 -1 2 13.1 6.8
25 -1 2 8.8 10.2
-25 1 -3 35.1 11
25 -1 3 47 10.1
25 -1 3 39.9 9.9
25 -1 3 58.99 15
-25 1 -4 90.69 16.1
25 -1 4 110.49 20.5
25 -1 4 97.29 15.5
25 -1 4 131.89 17.1
-25 1 -5 21 10.3
25 -1 5 39.5 9.6
25 -1 5 22.8 8
-25 2 5 -0.2 7.6
25 -2 -5 7.7 10.6
-25 2 4 8.9 9.1
25 -2 -4 3.3 11.9
-25 2 3 24.8 10.6
-25 2 3 24.8 8.3
25 -2 -3 24.3 12.2
-25 2 2 3.3 8.2
-25 2 2 10.2 6.8
25 -2 -2 4.7 8.6
-25 2 1 -1.7 6.3
-25 2 1 5.3 6.6
25 -2 -1 -4 8.2
-25 2 0 -1 5.9
-25 2 0 6.7 8.5
25 -2 0 -6.2 6.1
-25 2 -1 4 6.6
25 -2 1 6.1 8.6
-25 2 -2 -6.1 6.5
25 -2 2 2.8 7.9
-25 2 -3 16.4 8.7
25 -2 3 18.6 7.8
25 -2 3 14.9 7.2
25 -2 3 17.7 9.9
-25 2 -4 14.8 9.1
25 -2 4 18.8 7.7
25 -2 4 10.5 9.5
25 -2 4 15.2 7.4
-25 2 -5 -12.8 6.3
25 -2 5 9.5 6.3
25 -2 5 6.9 6
-25 3 5 37.7 12.1
25 -3 -5 39.3 17.3
-25 3 4 3.3 8.4
25 -3 -4 0.9 9.9
-25 3 3 14.1 9
25 -3 -3 1.6 10.9
-25 3 2 67.79 14.7
-25 3 2 49 11.3
25 -3 -2 32.8 13.8
-25 3 1 20.5 8.5
-25 3 1 47.2 13.3
25 -3 -1 33.8 14.6
-25 3 0 32.7 11.9
-25 3 0 27.1 8.8
25 -3 0 18.2 10.9
-25 3 -1 25.7 9.5
25 -3 1 16.9 10.4
-25 3 -2 36.6 10.6
25 -3 2 38.3 14.4
-25 3 -3 8.4 8.4
25 -3 3 0.5 7.1
-25 3 -4 -2.6 6.4
25 -3 4 0.4 5.6
25 -3 4 6.8 6.6
-25 3 -5 50.19 12.7
25 -3 5 22.2 8.3
-25 4 4 1.5 9.1
25 -4 -4 7.4 12.1
-25 4 3 26.6 11.1
-25 4 3 24.5 8.5
25 -4 -3 39.1 17.2
-25 4 2 53.59 11
25 -4 -2 17.8 13
-25 4 1 44.3 11
25 -4 -1 33.7 14.8
-25 4 0 21 8.4
25 -4 0 13.2 9.9
-25 4 -1 63.99 13.5
25 -4 1 84.89 19.9
-25 4 -2 43.1 12.3
25 -4 2 24.2 11.6
-25 4 -3 12.6 8
25 -4 3 12.9 10.4
-25 4 -4 -2.6 6.9
25 -4 4 6.9 5.7
-25 5 3 -2.7 6.2
25 -5 -3 2.7 9.9
-25 5 2 7.9 7.2
25 -5 -2 4.7 9.9
-25 5 1 21.2 8.9
25 -5 -1 17.5 12.4
-25 5 0 1 6.2
25 -5 0 -2 7.5
-25 5 -1 9.7 7.5
25 -5 1 36.2 14.3
-25 5 -2 6 7.8
25 -5 2 7.4 7.8
-25 5 -3 -3.1 6.1
25 -5 3 4.2 9.1
-25 5 -4 11.6 8
-25 6 3 34.1 10.2
-25 6 2 40.4 11
25 -6 -2 58.39 19
-25 6 1 51.59 12.2
25 -6 -1 35.7 15.8
-25 6 0 11.2 8.5
25 -6 0 15.6 11.9
-25 6 -1 34.5 10.7
25 -6 1 43.2 14.5
-25 6 -2 23.9 9.9
25 -6 2 35.8 13.6
-25 7 0 19.8 9.2
-26 -5 2 6.4 6.1
26 5 -2 2.5 9.2
26 5 -2 -0.1 7.7
-26 -5 1 1.3 5.4
26 5 -1 0.6 9.2
26 5 -1 5.8 6.2
26 5 -1 9.1 8.1
-26 -5 0 26.3 8.9
26 5 0 8.1 6.6
26 5 0 3.9 8.2
26 5 0 11.2 8.2
-26 -5 -1 1 6
-26 -5 -1 -8.9 11
26 5 1 6.2 6.4
26 5 1 6.9 7.5
26 5 1 2.7 8
-26 -5 -2 9.2 14.1
-26 -5 -2 -3 6.5
26 5 2 -3.7 5.3
26 5 2 1.9 8.1
-26 -4 3 1.2 8.2
-26 -4 3 18.8 6.6
26 4 -3 10.4 9.2
26 4 -3 1 9.6
-26 -4 2 22.1 10
-26 -4 2 11.5 6.6
26 4 -2 22.6 12.6
26 4 -2 29 10.9
-26 -4 1 1.1 5.8
26 4 -1 3.4 7.1
26 4 -1 6.5 8.7
-26 -4 0 2.9 6.2
26 4 0 -0.4 8.4
26 4 0 -0.8 6.8
26 4 0 2.3 5.4
-26 -4 -1 13.7 7.7
26 4 1 11 7.4
26 4 1 8.2 7.1
26 4 1 -2.6 6.8
-26 -4 -2 28.6 9.4
26 4 2 1.3 5.7
26 4 2 2.3 6.2
26 4 2 13 9.7
-26 -4 -3 4.5 7.2
26 4 3 13.1 9
26 4 3 9.8 10.1
26 4 3 14.9 7.8
-26 -3 3 -2.9 7.3
-26 -3 3 14.2 6.5
26 3 -3 8.2 8.4
26 3 -3 8.7 11.1
-26 -3 2 5.8 5.8
-26 -3 2 -2.1 7.3
26 3 -2 7.3 7.9
26 3 -2 9.4 11.8
-26 -3 1 26.7 9
26 3 -1 16.2 9.3
26 3 -1 21.3 12.6
-26 -3 0 14.2 7.3
26 3 0 2 8.9
26 3 0 9.3 7.7
26 3 0 0.6 5.2
-26 -3 -1 11.6 7.6
26 3 1 32.8 9.3
26 3 1 24.7 12.3
26 3 1 11.5 7.6
-26 -3 -2 15.6 8.7
26 3 2 0.4 4.6
26 3 2 4 8
26 3 2 1.1 5.6
-26 -3 -3 17.3 8.7
26 3 3 11.1 7.2
26 3 3 8.4 9.7
26 3 3 11.8 6.5
-26 -2 4 -6.8 7.5
26 2 -4 -2.5 8.7
-26 -2 3 11.4 9.9
-26 -2 3 14.8 6.4
26 2 -3 -0.8 8.7
26 2 -3 25.9 11.1
-26 -2 2 45.5 13.3
-26 -2 2 53.09 10.6
26 2 -2 52.99 12.8
26 2 -2 35.4 14
-26 -2 1 7.4 10
-26 -2 1 10.8 6.9
26 2 -1 0.9 7.8
26 2 -1 -3.2 6.2
-26 -2 0 16.4 7.4
26 2 0 10.6 9
26 2 0 5.8 6.9
-26 -2 -1 -3.4 5.5
26 2 1 -0.4 6.3
26 2 1 4.4 8.9
26 2 1 0.9 4.8
-26 -2 -2 36.1 10.5
26 2 2 21 8.1
26 2 2 25.5 12.4
26 2 2 13.4 7
-26 -2 -3 2.9 7.1
26 2 3 0.8 5.2
26 2 3 8.7 10.2
26 2 3 17.4 8.2
-26 -2 -4 8.2 8
26 2 4 -1.4 5.3
26 2 4 -1.6 7.6
26 2 4 -2.8 4.8
-26 -1 4 28.4 10.8
26 1 -4 31.2 14
-26 -1 3 40.6 12.2
-26 -1 3 50.39 9.7
26 1 -3 47.3 16.8
-26 -1 2 -7.1 7.9
-26 -1 2 1.3 5.6
26 1 -2 1.4 8.3
-26 -1 1 35.7 11.4
-26 -1 1 41.2 10.3
26 1 -1 20.5 11.2
-26 -1 0 2.6 5.9
26 1 0 17.4 8.8
26 1 0 16.7 11.3
-26 -1 -1 34.4 10.1
26 1 1 29.1 9.6
26 1 1 14.1 10.7
-26 -1 -2 2.7 7.1
26 1 2 2.1 8.3
26 1 2 -2.8 5.2
26 1 2 2.9 5
-26 -1 -3 18.8 9
26 1 3 20.8 11.5
26 1 3 29.5 9
26 1 3 26.6 8.8
-26 -1 -4 19.6 9.9
26 1 4 20.2 8.2
26 1 4 35.2 12.8
26 1 4 17.9 7.6
-26 0 4 -1.3 8.1
26 0 -4 -4.7 7.7
-26 0 3 12.5 6.5
-26 0 3 8.2 10.2
26 0 -3 6.2 10
-26 0 2 15.5 7.1
-26 0 2 8.5 9.4
26 0 -2 10.8 9.9
-26 0 1 13.9 7.2
-26 0 1 18 11.1
26 0 -1 1.1 8.6
-26 0 0 2 5.7
26 0 0 -0.1 8
-26 0 -1 6.4 7.6
26 0 1 14.1 9.9
26 0 1 14.7 8.5
-26 0 -2 1.9 6.9
26 0 2 0.5 4.8
26 0 2 -3.1 4.9
26 0 2 2.8 7.9
-26 0 -3 -0.6 7.1
26 0 3 8.2 6.4
26 0 3 -5 5.6
26 0 3 8.3 9.7
-26 0 -4 -3 7.9
26 0 4 1 8
26 0 4 5.5 6
26 0 4 15.2 6.8
-26 1 4 39.3 12.9
26 -1 -4 48.4 16.9
-26 1 3 70.79 11.6
-26 1 3 60.39 14.9
26 -1 -3 37.8 15.2
-26 1 2 7.5 9.3
-26 1 2 -5 4.8
26 -1 -2 -5.6 8.1
-26 1 1 20.6 11.2
-26 1 1 19.4 8.2
26 -1 -1 29 13.4
-26 1 0 14.9 7.3
26 -1 0 14.6 10.9
-26 1 -1 24.9 9.4
26 -1 1 9.3 8.7
-26 1 -2 5.9 7.8
26 -1 2 2.3 8.2
26 -1 2 -4.6 4.9
-26 1 -3 30.3 10.8
26 -1 3 12.4 10.8
26 -1 3 24.1 8.2
26 -1 3 26.2 8.6
-26 1 -4 37.6 11.6
26 -1 4 14.4 9.7
26 -1 4 18.5 7.8
26 -1 4 25.3 8.6
-26 2 4 0.8 9.2
26 -2 -4 3.9 11.1
-26 2 3 21.6 7.9
-26 2 3 21.9 10.1
26 -2 -3 8 10.2
-26 2 2 26.3 8.8
-26 2 2 50.19 13.2
26 -2 -2 23.5 12.9
-26 2 1 10.8 7.5
-26 2 1 -3.6 6.7
26 -2 -1 -4.5 7.3
-26 2 0 0.7 6.9
26 -2 0 6.9 9.2
-26 2 -1 13.1 8.6
26 -2 1 6.5 9.1
-26 2 -2 31.1 10.5
26 -2 2 27.6 11.7
-26 2 -3 7.7 7.7
26 -2 3 8.3 8.6
26 -2 3 12 7
26 -2 3 4.5 7
-26 2 -4 -2.5 7.7
26 -2 4 7.9 9.1
26 -2 4 -1 5
26 -2 4 6.3 6.3
-26 3 3 15.8 10.3
-26 3 3 8.3 7.2
26 -3 -3 4.1 10.3
-26 3 2 11 7.6
-26 3 2 8.3 9.4
26 -3 -2 22 13
-26 3 1 35.7 11.3
-26 3 1 27.5 9.4
26 -3 -1 29.5 14.4
-26 3 0 -1.8 6.1
26 -3 0 -9.3 7.9
-26 3 -1 21.7 9
26 -3 1 32.7 12.3
-26 3 -2 9.5 8
26 -3 2 -1.1 7.5
-26 3 -3 18.3 9.4
26 -3 3 5.3 9.3
-26 4 3 18 9.6
-26 4 3 29 8.8
26 -4 -3 11.4 12.1
-26 4 2 14.8 7.9
-26 4 2 27.8 12
26 -4 -2 11.2 11.4
-26 4 1 10.9 7.5
-26 4 1 16.9 10
26 -4 -1 4.3 11.5
-26 4 0 4.8 7.4
26 -4 0 1.8 7.9
-26 4 -1 18.9 8.9
26 -4 1 -2.3 9
-26 4 -2 8.6 8.1
26 -4 2 18.4 10.5
-26 4 -3 -3.9 7
26 -4 3 12.7 9.8
-26 5 2 0.4 6.6
26 -5 -2 22.7 14
-26 5 1 5.4 7.9
26 -5 -1 -9.1 8.3
-26 5 0 10.3 8.5
26 -5 0 17 12.6
-26 5 -1 -0.4 6.9
26 -5 1 13.4 10.5
-26 5 -2 -2.9 7
26 -5 2 4.1 7.5
-27 -3 2 60.09 11.5
-27 -3 1 6.5 6.4
27 3 -1 5.5 8.2
27 3 -1 2 9
-27 -3 0 29.7 10.1
27 3 0 57.69 17.1
27 3 0 40.2 9.8
27 3 0 49.5 12.4
-27 -3 -1 14.5 7.8
27 3 1 10.1 10.7
27 3 1 0.2 6
27 3 1 2.6 7.2
-27 -3 -2 37.4 10.9
-27 -2 2 31.8 11.9
27 2 -2 31.2 11.4
27 2 -2 34.1 14.9
-27 -2 1 60.19 12.4
27 2 -1 78.69 20
27 2 -1 79.79 14.7
-27 -2 0 23 8.9
27 2 0 44.3 11.9
27 2 0 38.2 14.8
-27 -2 -1 66.39 13.1
27 2 1 81.19 15
27 2 1 74.69 18.5
-27 -2 -2 27.1 10.7
27 2 2 25.1 9
27 2 2 16.7 11.6
27 2 2 14.7 7.3
-27 -1 3 30.2 9.3
-27 -1 2 16.7 11.4
-27 -1 2 59.79 11.6
27 1 -2 34.2 14
-27 -1 1 42.1 10.3
27 1 -1 21.4 9.6
27 1 -1 2.8 9.9
-27 -1 0 12.6 7.6
27 1 0 -0.5 9.2
27 1 0 8 7.8
-27 -1 -1 32.2 10.2
27 1 1 10.6 7.9
27 1 1 -3.8 8.1
-27 -1 -2 21.1 9.5
27 1 2 26.4 9.4
27 1 2 30.9 8.9
27 1 2 11.2 9.5
-27 -1 -3 6 8.1
-27 0 3 -3 5.5
27 0 -3 -7 8.7
-27 0 2 -2.3 7.6
-27 0 2 6.2 6.5
27 0 -2 -0.7 7.6
-27 0 1 2 8.5
-27 0 1 0.5 6
27 0 -1 -2.7 8.1
27 0 0 -2.4 8.7
27 0 0 -4.3 6.3
-27 0 -1 -3.8 5.6
27 0 1 -0.3 6.4
27 0 1 -3.2 7.3
-27 0 -2 -9.8 6
27 0 2 -1.8 4.4
27 0 2 -1 5.4
27 0 2 5.9 7.9
-27 0 -3 -4.6 7.2
27 0 3 7.7 9.5
27 0 3 -4.2 6.3
-27 1 3 27.7 9.9
-27 1 2 42.4 13.6
-27 1 2 41.9 10.3
27 -1 -2 26.9 13.5
-27 1 1 12.6 10.6
-27 1 1 16.9 8
27 -1 -1 8.3 10.1
-27 1 0 1.2 6.5
27 -1 0 -0.5 8.9
-27 1 -1 5 7.1
27 -1 1 4.7 8.8
27 -1 1 2.9 7.1
-27 1 -2 15.8 9.1
27 -1 2 15.6 7.8
27 -1 2 12.5 10.7
-27 1 -3 3 7.4
-27 2 2 41.4 12.7
-27 2 2 20.8 8.7
27 -2 -2 33.2 14.5
-27 2 1 120.69 18.8
-27 2 1 74.49 13.9
27 -2 -1 57.59 18.6
-27 2 0 31.3 10.3
27 -2 0 25.3 13.2
-27 2 -1 68.09 13.9
27 -2 1 56.19 16.8
-27 2 -2 27.9 11
27 -2 2 19.3 10.8
27 -2 2 24 9.3
-27 3 2 61.79 13.1
-27 3 1 10.2 9
-27 3 1 11.3 8
27 -3 -1 8.9 11.1
-27 3 0 51.09 12.5
27 -3 0 37.4 14.3
-27 3 -1 -1.3 7.1
27 -3 1 -1.8 9.3
-27 3 -2 35.2 11.3
