#------------------------------------------------------------------------------
#$Date: 2018-01-06 04:34:25 +0200 (Sat, 06 Jan 2018) $
#$Revision: 204889 $
#$URL: file:///home/coder/svn-repositories/cod/cif/1/54/78/1547828.cif $
#------------------------------------------------------------------------------
#
# This file is available in the Crystallography Open Database (COD),
# http://www.crystallography.net/
#
# All data on this site have been placed in the public domain by the
# contributors.
#
data_1547828
loop_
_publ_author_name
'Gharpure, Santosh J.'
'Anuradha, Dandela'
_publ_section_title
;
 Synthesis of Benzo[1,4]heterocycles using Palladium Catalyzed Heck
 Reaction to Vinylogous Carbonates/Carbamates: Unexpected Formation of
 Indoles via Carbopalladation Intercepted by Nucleopalladation.
;
_journal_issue                   22
_journal_name_full               'Organic letters'
_journal_page_first              6136
_journal_page_last               6139
_journal_paper_doi               10.1021/acs.orglett.7b03016
_journal_volume                  19
_journal_year                    2017
_chemical_formula_moiety         'C28 H29 N O6 S'
_chemical_formula_sum            'C28 H29 N O6 S'
_chemical_formula_weight         507.58
_chemical_name_systematic
;
 ?
;
_space_group_crystal_system      monoclinic
_space_group_IT_number           14
_space_group_name_Hall           '-P 2yn'
_space_group_name_H-M_alt        'P 1 21/n 1'
_symmetry_space_group_name_Hall  '-P 2yn'
_symmetry_space_group_name_H-M   'P 1 21/n 1'
_atom_sites_solution_hydrogens   geom
_atom_sites_solution_primary     dual
_audit_creation_date             2017-09-25
_audit_creation_method
;
Olex2 1.2-ac3
(compiled 2016.08.26 svn.r3337 for Rigaku Oxford Diffraction, GUI svn.r5221)
;
_cell_angle_alpha                90
_cell_angle_beta                 104.956(5)
_cell_angle_gamma                90
_cell_formula_units_Z            4
_cell_length_a                   8.720(2)
_cell_length_b                   21.854(5)
_cell_length_c                   13.387(4)
_cell_measurement_reflns_used    18975
_cell_measurement_temperature    100(2)
_cell_measurement_theta_max      25.30
_cell_measurement_theta_min      3.70
_cell_volume                     2464.7(11)
_computing_molecular_graphics    'Olex2 (Dolomanov et al., 2009)'
_computing_publication_material  'Olex2 (Dolomanov et al., 2009)'
_computing_structure_refinement  'ShelXL (Sheldrick, 2015)'
_computing_structure_solution    'ShelXT (Sheldrick, 2015)'
_diffrn_ambient_temperature      100.15
_diffrn_measured_fraction_theta_full 0.994
_diffrn_measured_fraction_theta_max 0.993
_diffrn_measurement_device_type  'Rigaku Saturn 724'
_diffrn_radiation_type           MoK\a
_diffrn_radiation_wavelength     0.71075
_diffrn_reflns_av_R_equivalents  0.0381
_diffrn_reflns_av_unetI/netI     0.0337
_diffrn_reflns_Laue_measured_fraction_full 0.994
_diffrn_reflns_Laue_measured_fraction_max 0.993
_diffrn_reflns_limit_h_max       10
_diffrn_reflns_limit_h_min       -10
_diffrn_reflns_limit_k_max       26
_diffrn_reflns_limit_k_min       -20
_diffrn_reflns_limit_l_max       16
_diffrn_reflns_limit_l_min       -11
_diffrn_reflns_number            18695
_diffrn_reflns_point_group_measured_fraction_full 0.994
_diffrn_reflns_point_group_measured_fraction_max 0.993
_diffrn_reflns_theta_full        25.242
_diffrn_reflns_theta_max         25.345
_diffrn_reflns_theta_min         3.698
_exptl_absorpt_coefficient_mu    0.176
_exptl_absorpt_correction_T_max  0.939
_exptl_absorpt_correction_T_min  0.920
_exptl_absorpt_correction_type   numerical
_exptl_absorpt_process_details   'NUMABS (Rigaku, 1999)'
_exptl_crystal_colour            colourless
_exptl_crystal_colour_primary    colourless
_exptl_crystal_density_diffrn    1.368
_exptl_crystal_description       block
_exptl_crystal_F_000             1072
_exptl_crystal_size_max          0.47
_exptl_crystal_size_mid          0.39
_exptl_crystal_size_min          0.36
_refine_diff_density_max         0.257
_refine_diff_density_min         -0.382
_refine_diff_density_rms         0.050
_refine_ls_extinction_method     none
_refine_ls_goodness_of_fit_ref   1.043
_refine_ls_hydrogen_treatment    constr
_refine_ls_matrix_type           full
_refine_ls_number_parameters     327
_refine_ls_number_reflns         4485
_refine_ls_number_restraints     0
_refine_ls_restrained_S_all      1.043
_refine_ls_R_factor_all          0.0479
_refine_ls_R_factor_gt           0.0412
_refine_ls_shift/su_max          0.001
_refine_ls_shift/su_mean         0.000
_refine_ls_structure_factor_coef Fsqd
_refine_ls_weighting_details
'w=1/[\s^2^(Fo^2^)+(0.0477P)^2^+1.0492P] where P=(Fo^2^+2Fc^2^)/3'
_refine_ls_weighting_scheme      calc
_refine_ls_wR_factor_gt          0.0950
_refine_ls_wR_factor_ref         0.0998
_reflns_Friedel_coverage         0.000
_reflns_number_gt                3912
_reflns_number_total             4485
_reflns_threshold_expression     'I > 2\s(I)'
_iucr_refine_instructions_details
;

    shelxl.res created by SHELXL-2014/7

TITL shelxl_a.res in P2(1)/n
REM Old TITL sjg-ANU-4-12-S2
REM SHELXT solution in P2(1)/n
REM R1 0.104, Rweak 0.005, Alpha 0.026, Orientation as input
REM Formula found by SHELXT: C28 N O6 S
CELL 0.71075 8.72 21.854 13.387 90 104.956 90
ZERR 4 0.002 0.005 0.004 0 0.005 0
LATT 1
SYMM 0.5-X,0.5+Y,0.5-Z
SFAC C H N O S
UNIT 112 116 4 24 4
 
L.S. 100
PLAN  -5
SIZE 0.36 0.39 0.47
TEMP -173
BOND $H
list 4
fmap 2
acta
MORE -1
CONF
OMIT 0 4 0
REM <olex2.extras>
REM <HklSrc "%.\\shelxl.hkl">
REM </olex2.extras>
 
WGHT    0.047700    1.049200
FVAR       0.31079
S1    5    0.555389    0.403138    1.005832    11.00000    0.01732    0.01815 =
         0.01534   -0.00199    0.00165   -0.00004
O1    4    0.540635    0.176226    0.692332    11.00000    0.02289    0.01350 =
         0.02507   -0.00063    0.00968    0.00141
O6    4    0.723368    0.445159    0.671371    11.00000    0.01696    0.02250 =
         0.01924    0.00289    0.00637   -0.00031
O3    4    0.505345    0.366783    0.707849    11.00000    0.01995    0.01327 =
         0.02326    0.00036    0.00948   -0.00027
O4    4    0.698198    0.438840    1.030474    11.00000    0.02077    0.01924 =
         0.02552   -0.00245   -0.00237   -0.00343
O2    4    0.651836    0.263287    0.654547    11.00000    0.02641    0.01916 =
         0.03395   -0.00037    0.01540   -0.00192
O5    4    0.449834    0.404476    1.071830    11.00000    0.02663    0.02791 =
         0.01626   -0.00224    0.00655    0.00324
N1    3    0.454747    0.425106    0.890574    11.00000    0.01407    0.01743 =
         0.01579   -0.00097    0.00284   -0.00212
C3    1    0.552408    0.237992    0.688573    11.00000    0.02097    0.01549 =
         0.01668    0.00091    0.00295    0.00012
C4    1    0.429793    0.266438    0.730560    11.00000    0.01691    0.01779 =
         0.01791    0.00081    0.00418   -0.00257
AFIX  43
H4    2    0.360244    0.239724    0.753775    11.00000   -1.20000
AFIX   0
C8    1    0.298968    0.399855    0.850149    11.00000    0.01526    0.01618 =
         0.01481    0.00293    0.00252   -0.00113
C5    1    0.407114    0.326498    0.739095    11.00000    0.01659    0.01801 =
         0.01284    0.00206    0.00269   -0.00252
C14   1    0.607023    0.326198    0.993712    11.00000    0.01848    0.01785 =
         0.01340    0.00055    0.00019    0.00014
C19   1    0.502753    0.279961    1.004562    11.00000    0.01781    0.02529 =
         0.01850    0.00228    0.00379   -0.00108
AFIX  43
H19   2    0.406757    0.289449    1.022285    11.00000   -1.20000
AFIX   0
C7    1    0.535373    0.455526    0.819738    11.00000    0.01969    0.01791 =
         0.01957   -0.00049    0.00731   -0.00408
AFIX  23
H7A   2    0.651187    0.448482    0.844182    11.00000   -1.20000
H7B   2    0.516396    0.500176    0.820182    11.00000   -1.20000
AFIX   0
C13   1    0.275818    0.351101    0.779542    11.00000    0.01710    0.01554 =
         0.01546    0.00384    0.00343    0.00119
C12   1    0.123398    0.325836    0.745981    11.00000    0.02051    0.01723 =
         0.01875    0.00061    0.00344   -0.00254
AFIX  43
H12   2    0.105916    0.292343    0.699162    11.00000   -1.20000
AFIX   0
C6    1    0.475779    0.431468    0.710562    11.00000    0.01709    0.01293 =
         0.01914    0.00004    0.00464    0.00093
AFIX  13
H6    2    0.359152    0.439267    0.685385    11.00000   -1.20000
AFIX   0
C9    1    0.172622    0.423858    0.882707    11.00000    0.01975    0.01709 =
         0.01679    0.00119    0.00571    0.00055
AFIX  43
H9    2    0.189168    0.457564    0.929074    11.00000   -1.20000
AFIX   0
C21   1    0.560298    0.461388    0.638098    11.00000    0.01712    0.01591 =
         0.02153    0.00168    0.00453    0.00104
AFIX  23
H21A  2    0.514626    0.447047    0.566430    11.00000   -1.20000
H21B  2    0.548240    0.506395    0.639659    11.00000   -1.20000
AFIX   0
C22   1    0.812482    0.463461    0.601789    11.00000    0.02019    0.02351 =
         0.02512    0.00449    0.01094   -0.00329
AFIX  23
H22A  2    0.926524    0.456836    0.635150    11.00000   -1.20000
H22B  2    0.796576    0.507872    0.588509    11.00000   -1.20000
AFIX   0
C10   1    0.022256    0.398712    0.847655    11.00000    0.01734    0.02326 =
         0.02228    0.00195    0.00792    0.00217
AFIX  43
H10   2   -0.064079    0.415419    0.869749    11.00000   -1.20000
AFIX   0
C28   1    0.809601    0.456311    0.414234    11.00000    0.02047    0.02814 =
         0.02670    0.00812    0.00949    0.00688
AFIX  43
H28   2    0.861486    0.494895    0.421401    11.00000   -1.20000
AFIX   0
C18   1    0.541504    0.219841    0.989047    11.00000    0.02499    0.01999 =
         0.02275    0.00373    0.00010   -0.00447
AFIX  43
H18   2    0.471053    0.187982    0.996318    11.00000   -1.20000
AFIX   0
C15   1    0.747172    0.312575    0.967846    11.00000    0.01924    0.02118 =
         0.02330    0.00172    0.00514   -0.00260
AFIX  43
H15   2    0.817636    0.344415    0.960511    11.00000   -1.20000
AFIX   0
C11   1   -0.002588    0.349046    0.780168    11.00000    0.01465    0.02536 =
         0.02356    0.00386    0.00318   -0.00368
AFIX  43
H11   2   -0.104993    0.331139    0.757637    11.00000   -1.20000
AFIX   0
C16   1    0.783680    0.252146    0.952774    11.00000    0.02126    0.02549 =
         0.02607   -0.00103    0.00550    0.00339
AFIX  43
H16   2    0.879802    0.242683    0.935196    11.00000   -1.20000
AFIX   0
C23   1    0.770274    0.430127    0.499448    11.00000    0.01715    0.02308 =
         0.02592    0.00336    0.00923    0.00445
C17   1    0.681427    0.205258    0.963058    11.00000    0.02641    0.02026 =
         0.01728    0.00159   -0.00191    0.00292
C2    1    0.652851    0.142197    0.650401    11.00000    0.02134    0.01931 =
         0.02700   -0.00257    0.01078    0.00329
AFIX  23
H2A   2    0.762652    0.149920    0.691997    11.00000   -1.20000
H2B   2    0.644539    0.154982    0.578250    11.00000   -1.20000
AFIX   0
C24   1    0.695642    0.373457    0.487963    11.00000    0.02356    0.02356 =
         0.02611    0.00298    0.00975    0.00417
AFIX  43
H24   2    0.669921    0.354537    0.545444    11.00000   -1.20000
AFIX   0
C1    1    0.612943    0.075398    0.653976    11.00000    0.02545    0.02022 =
         0.03070    0.00050    0.01062    0.00367
AFIX 137
H1A   2    0.503168    0.068501    0.614079    11.00000   -1.50000
H1B   2    0.624779    0.062984    0.725915    11.00000   -1.50000
H1C   2    0.684886    0.051192    0.624263    11.00000   -1.50000
AFIX   0
C25   1    0.658541    0.344392    0.392154    11.00000    0.02515    0.02822 =
         0.03188   -0.00418    0.00595    0.00400
AFIX  43
H25   2    0.606218    0.305892    0.384580    11.00000   -1.20000
AFIX   0
C26   1    0.696948    0.370894    0.307656    11.00000    0.03092    0.04101 =
         0.02373   -0.00266    0.00389    0.01548
AFIX  43
H26   2    0.670571    0.350839    0.242489    11.00000   -1.20000
AFIX   0
C27   1    0.774004    0.426791    0.319051    11.00000    0.02791    0.04147 =
         0.02613    0.00890    0.01227    0.01317
AFIX  43
H27   2    0.802532    0.444963    0.261930    11.00000   -1.20000
AFIX   0
C20   1    0.720461    0.139222    0.947315    11.00000    0.03638    0.02215 =
         0.03153    0.00097   -0.00151    0.00398
AFIX 137
H20A  2    0.730182    0.116478    1.011742    11.00000   -1.50000
H20B  2    0.820961    0.137062    0.927514    11.00000   -1.50000
H20C  2    0.635575    0.121268    0.892470    11.00000   -1.50000
AFIX   0
HKLF 4
 
REM  shelxl_a.res in P2(1)/n
REM R1 =  0.0412 for    3912 Fo > 4sig(Fo)  and  0.0479 for all    4485 data
REM    327 parameters refined using      0 restraints
 
END  
     
WGHT      0.0461      1.0866 

REM Highest difference peak  0.257,  deepest hole -0.382,  1-sigma level  0.050
Q1    1   0.3252  0.3430  0.7526  11.00000  0.05    0.26
Q2    1   0.5793  0.3587  0.9941  11.00000  0.05    0.24
Q3    1   0.7139  0.2278  0.9386  11.00000  0.05    0.21
Q4    1   0.2074  0.3504  0.7539  11.00000  0.05    0.21
Q5    1   0.6348  0.2080  1.0023  11.00000  0.05    0.20

  REM The information below was added by Olex2.
  REM
  REM R1 = 0.0412 for 3912 Fo > 4sig(Fo) and 0.0479 for all 18975 data
  REM n/a parameters refined using n/a restraints
  REM Highest difference peak 0.26, deepest hole -0.38
  REM Mean Shift 0, Max Shift -0.001.
  
  REM +++ Tabular Listing of Refinement Information +++
  REM R1_all = 0.0479
  REM R1_gt = 0.0412
  REM wR_ref = 0.0998
  REM GOOF = 1.043
  REM Shift_max = -0.001
  REM Shift_mean = 0
  REM Reflections_all = 18975
  REM Reflections_gt = 3912
  REM Parameters = n/a
  REM Hole = -0.38
  REM Peak = 0.26
  REM Flack = n/a
  
  
;
_cod_data_source_file            sjg-anu-5.cif
_cod_data_source_block           shelxl
_cod_depositor_comments
'Adding full bibliography for 1547825--1547834.cif.'
_cod_database_code               1547828
_shelx_space_group_comment
;
The symmetry employed for this shelxl refinement is uniquely defined
by the following loop, which should always be used as a source of
symmetry information in preference to the above space-group names.
They are only intended as comments.
;
_shelx_estimated_absorpt_t_max   0.939
_shelx_estimated_absorpt_t_min   0.922
_olex2_refinement_description
;
1. Fixed Uiso
 At 1.2 times of:
  All C(H) groups, All C(H,H) groups
 At 1.5 times of:
  All C(H,H,H) groups
2.a Ternary CH refined with riding coordinates:
 C6(H6)
2.b Secondary CH2 refined with riding coordinates:
 C7(H7A,H7B), C21(H21A,H21B), C22(H22A,H22B), C2(H2A,H2B)
2.c Aromatic/amide H refined with riding coordinates:
 C4(H4), C19(H19), C12(H12), C9(H9), C10(H10), C28(H28), C18(H18), C15(H15),
 C11(H11), C16(H16), C24(H24), C25(H25), C26(H26), C27(H27)
2.d Idealised Me refined as rotating group:
 C1(H1A,H1B,H1C), C20(H20A,H20B,H20C)
;
_shelx_shelxl_version_number     2014/7
_olex2_submission_special_instructions 'No special instructions were received'
loop_
_space_group_symop_operation_xyz
'x, y, z'
'-x+1/2, y+1/2, -z+1/2'
'-x, -y, -z'
'x-1/2, -y-1/2, z-1/2'
loop_
_atom_site_label
_atom_site_type_symbol
_atom_site_fract_x
_atom_site_fract_y
_atom_site_fract_z
_atom_site_U_iso_or_equiv
_atom_site_adp_type
_atom_site_occupancy
_atom_site_site_symmetry_order
_atom_site_calc_flag
_atom_site_refinement_flags_posn
S1 S 0.55539(5) 0.40314(2) 1.00583(3) 0.01741(13) Uani 1 1 d .
O1 O 0.54064(14) 0.17623(5) 0.69233(9) 0.0198(3) Uani 1 1 d .
O6 O 0.72337(14) 0.44516(5) 0.67137(9) 0.0193(3) Uani 1 1 d .
O3 O 0.50535(14) 0.36678(5) 0.70785(9) 0.0181(3) Uani 1 1 d .
O4 O 0.69820(14) 0.43884(5) 1.03047(10) 0.0234(3) Uani 1 1 d .
O2 O 0.65184(15) 0.26329(5) 0.65455(10) 0.0251(3) Uani 1 1 d .
O5 O 0.44983(15) 0.40448(5) 1.07183(9) 0.0234(3) Uani 1 1 d .
N1 N 0.45475(16) 0.42511(6) 0.89057(11) 0.0160(3) Uani 1 1 d .
C3 C 0.5524(2) 0.23799(8) 0.68857(13) 0.0181(4) Uani 1 1 d .
C4 C 0.4298(2) 0.26644(8) 0.73056(13) 0.0176(4) Uani 1 1 d .
H4 H 0.3602 0.2397 0.7538 0.021 Uiso 1 1 calc R
C8 C 0.2990(2) 0.39985(7) 0.85015(13) 0.0157(4) Uani 1 1 d .
C5 C 0.4071(2) 0.32650(8) 0.73910(13) 0.0160(4) Uani 1 1 d .
C14 C 0.6070(2) 0.32620(8) 0.99371(13) 0.0173(4) Uani 1 1 d .
C19 C 0.5028(2) 0.27996(8) 1.00456(14) 0.0207(4) Uani 1 1 d .
H19 H 0.4068 0.2894 1.0223 0.025 Uiso 1 1 calc R
C7 C 0.5354(2) 0.45553(8) 0.81974(13) 0.0186(4) Uani 1 1 d .
H7A H 0.6512 0.4485 0.8442 0.022 Uiso 1 1 calc R
H7B H 0.5164 0.5002 0.8202 0.022 Uiso 1 1 calc R
C13 C 0.2758(2) 0.35110(7) 0.77954(13) 0.0162(4) Uani 1 1 d .
C12 C 0.1234(2) 0.32584(8) 0.74598(13) 0.0191(4) Uani 1 1 d .
H12 H 0.1059 0.2923 0.6992 0.023 Uiso 1 1 calc R
C6 C 0.4758(2) 0.43147(7) 0.71056(13) 0.0164(4) Uani 1 1 d .
H6 H 0.3592 0.4393 0.6854 0.020 Uiso 1 1 calc R
C9 C 0.1726(2) 0.42386(8) 0.88271(13) 0.0177(4) Uani 1 1 d .
H9 H 0.1892 0.4576 0.9291 0.021 Uiso 1 1 calc R
C21 C 0.5603(2) 0.46139(8) 0.63810(14) 0.0183(4) Uani 1 1 d .
H21A H 0.5146 0.4470 0.5664 0.022 Uiso 1 1 calc R
H21B H 0.5482 0.5064 0.6397 0.022 Uiso 1 1 calc R
C22 C 0.8125(2) 0.46346(8) 0.60179(14) 0.0220(4) Uani 1 1 d .
H22A H 0.9265 0.4568 0.6352 0.026 Uiso 1 1 calc R
H22B H 0.7966 0.5079 0.5885 0.026 Uiso 1 1 calc R
C10 C 0.0223(2) 0.39871(8) 0.84765(14) 0.0204(4) Uani 1 1 d .
H10 H -0.0641 0.4154 0.8697 0.025 Uiso 1 1 calc R
C28 C 0.8096(2) 0.45631(9) 0.41423(14) 0.0245(4) Uani 1 1 d .
H28 H 0.8615 0.4949 0.4214 0.029 Uiso 1 1 calc R
C18 C 0.5415(2) 0.21984(8) 0.98905(14) 0.0237(4) Uani 1 1 d .
H18 H 0.4711 0.1880 0.9963 0.028 Uiso 1 1 calc R
C15 C 0.7472(2) 0.31257(8) 0.96785(14) 0.0213(4) Uani 1 1 d .
H15 H 0.8176 0.3444 0.9605 0.026 Uiso 1 1 calc R
C11 C -0.0026(2) 0.34905(8) 0.78017(14) 0.0215(4) Uani 1 1 d .
H11 H -0.1050 0.3311 0.7576 0.026 Uiso 1 1 calc R
C16 C 0.7837(2) 0.25215(8) 0.95277(15) 0.0244(4) Uani 1 1 d .
H16 H 0.8798 0.2427 0.9352 0.029 Uiso 1 1 calc R
C23 C 0.7703(2) 0.43013(8) 0.49945(14) 0.0214(4) Uani 1 1 d .
C17 C 0.6814(2) 0.20526(8) 0.96306(14) 0.0227(4) Uani 1 1 d .
C2 C 0.6529(2) 0.14220(8) 0.65040(15) 0.0217(4) Uani 1 1 d .
H2A H 0.7627 0.1499 0.6920 0.026 Uiso 1 1 calc R
H2B H 0.6445 0.1550 0.5783 0.026 Uiso 1 1 calc R
C24 C 0.6956(2) 0.37346(8) 0.48796(15) 0.0238(4) Uani 1 1 d .
H24 H 0.6699 0.3545 0.5454 0.029 Uiso 1 1 calc R
C1 C 0.6129(2) 0.07540(8) 0.65398(15) 0.0248(4) Uani 1 1 d .
H1A H 0.5032 0.0685 0.6141 0.037 Uiso 1 1 calc GR
H1B H 0.6248 0.0630 0.7259 0.037 Uiso 1 1 calc GR
H1C H 0.6849 0.0512 0.6243 0.037 Uiso 1 1 calc GR
C25 C 0.6585(2) 0.34439(9) 0.39215(15) 0.0287(4) Uani 1 1 d .
H25 H 0.6062 0.3059 0.3846 0.034 Uiso 1 1 calc R
C26 C 0.6969(2) 0.37089(10) 0.30766(16) 0.0325(5) Uani 1 1 d .
H26 H 0.6706 0.3508 0.2425 0.039 Uiso 1 1 calc R
C27 C 0.7740(2) 0.42679(10) 0.31905(16) 0.0309(5) Uani 1 1 d .
H27 H 0.8025 0.4450 0.2619 0.037 Uiso 1 1 calc R
C20 C 0.7205(3) 0.13922(9) 0.94731(16) 0.0319(5) Uani 1 1 d .
H20A H 0.7302 0.1165 1.0117 0.048 Uiso 1 1 calc GR
H20B H 0.8210 0.1371 0.9275 0.048 Uiso 1 1 calc GR
H20C H 0.6356 0.1213 0.8925 0.048 Uiso 1 1 calc GR
loop_
_atom_site_aniso_label
_atom_site_aniso_U_11
_atom_site_aniso_U_22
_atom_site_aniso_U_33
_atom_site_aniso_U_23
_atom_site_aniso_U_13
_atom_site_aniso_U_12
S1 0.0173(2) 0.0182(2) 0.0153(2) -0.00199(16) 0.00165(18) -0.00004(16)
O1 0.0229(7) 0.0135(6) 0.0251(7) -0.0006(5) 0.0097(6) 0.0014(5)
O6 0.0170(6) 0.0225(6) 0.0192(6) 0.0029(5) 0.0064(5) -0.0003(5)
O3 0.0199(6) 0.0133(6) 0.0233(7) 0.0004(5) 0.0095(5) -0.0003(5)
O4 0.0208(7) 0.0192(7) 0.0255(7) -0.0024(5) -0.0024(6) -0.0034(5)
O2 0.0264(7) 0.0192(7) 0.0340(8) -0.0004(6) 0.0154(6) -0.0019(5)
O5 0.0266(7) 0.0279(7) 0.0163(6) -0.0022(5) 0.0065(6) 0.0032(5)
N1 0.0141(7) 0.0174(7) 0.0158(7) -0.0010(6) 0.0028(6) -0.0021(6)
C3 0.0210(9) 0.0155(9) 0.0167(9) 0.0009(7) 0.0030(7) 0.0001(7)
C4 0.0169(9) 0.0178(9) 0.0179(9) 0.0008(7) 0.0042(7) -0.0026(7)
C8 0.0153(8) 0.0162(8) 0.0148(8) 0.0029(7) 0.0025(7) -0.0011(7)
C5 0.0166(8) 0.0180(9) 0.0128(8) 0.0021(7) 0.0027(7) -0.0025(7)
C14 0.0185(9) 0.0178(9) 0.0134(8) 0.0006(7) 0.0002(7) 0.0001(7)
C19 0.0178(9) 0.0253(10) 0.0185(9) 0.0023(7) 0.0038(7) -0.0011(7)
C7 0.0197(9) 0.0179(9) 0.0196(9) -0.0005(7) 0.0073(7) -0.0041(7)
C13 0.0171(9) 0.0155(8) 0.0155(8) 0.0038(7) 0.0034(7) 0.0012(7)
C12 0.0205(9) 0.0172(9) 0.0187(9) 0.0006(7) 0.0034(8) -0.0025(7)
C6 0.0171(8) 0.0129(8) 0.0191(9) 0.0000(7) 0.0046(7) 0.0009(6)
C9 0.0197(9) 0.0171(9) 0.0168(9) 0.0012(7) 0.0057(7) 0.0006(7)
C21 0.0171(8) 0.0159(9) 0.0215(9) 0.0017(7) 0.0045(7) 0.0010(7)
C22 0.0202(9) 0.0235(10) 0.0251(10) 0.0045(8) 0.0109(8) -0.0033(7)
C10 0.0173(9) 0.0233(9) 0.0223(10) 0.0019(7) 0.0079(8) 0.0022(7)
C28 0.0205(9) 0.0281(10) 0.0267(10) 0.0081(8) 0.0095(8) 0.0069(8)
C18 0.0250(10) 0.0200(9) 0.0227(10) 0.0037(7) 0.0001(8) -0.0045(7)
C15 0.0192(9) 0.0212(9) 0.0233(10) 0.0017(7) 0.0051(8) -0.0026(7)
C11 0.0146(9) 0.0254(10) 0.0236(10) 0.0039(8) 0.0032(8) -0.0037(7)
C16 0.0213(10) 0.0255(10) 0.0261(10) -0.0010(8) 0.0055(8) 0.0034(8)
C23 0.0172(9) 0.0231(10) 0.0259(10) 0.0034(8) 0.0092(8) 0.0044(7)
C17 0.0264(10) 0.0203(9) 0.0173(9) 0.0016(7) -0.0019(8) 0.0029(8)
C2 0.0213(9) 0.0193(9) 0.0270(10) -0.0026(8) 0.0108(8) 0.0033(7)
C24 0.0236(10) 0.0236(10) 0.0261(10) 0.0030(8) 0.0098(8) 0.0042(8)
C1 0.0254(10) 0.0202(9) 0.0307(11) 0.0005(8) 0.0106(9) 0.0037(8)
C25 0.0251(10) 0.0282(11) 0.0319(11) -0.0042(9) 0.0060(9) 0.0040(8)
C26 0.0309(11) 0.0410(12) 0.0237(11) -0.0027(9) 0.0039(9) 0.0155(9)
C27 0.0279(11) 0.0415(12) 0.0261(11) 0.0089(9) 0.0123(9) 0.0132(9)
C20 0.0364(12) 0.0222(10) 0.0315(11) 0.0010(8) -0.0015(9) 0.0040(8)
loop_
_atom_type_symbol
_atom_type_description
_atom_type_scat_dispersion_real
_atom_type_scat_dispersion_imag
_atom_type_scat_source
C C 0.0033 0.0016 'International Tables Vol C Tables 4.2.6.8 and 6.1.1.4'
H H 0.0000 0.0000 'International Tables Vol C Tables 4.2.6.8 and 6.1.1.4'
N N 0.0061 0.0033 'International Tables Vol C Tables 4.2.6.8 and 6.1.1.4'
O O 0.0106 0.0060 'International Tables Vol C Tables 4.2.6.8 and 6.1.1.4'
S S 0.1246 0.1234 'International Tables Vol C Tables 4.2.6.8 and 6.1.1.4'
loop_
_geom_angle_atom_site_label_1
_geom_angle_atom_site_label_2
_geom_angle_atom_site_label_3
_geom_angle
O4 S1 N1 106.24(7)
O4 S1 C14 108.27(8)
O5 S1 O4 120.37(8)
O5 S1 N1 107.58(8)
O5 S1 C14 107.29(8)
N1 S1 C14 106.32(8)
C3 O1 C2 115.50(12)
C22 O6 C21 113.45(13)
C5 O3 C6 119.63(12)
C8 N1 S1 117.84(11)
C8 N1 C7 119.46(14)
C7 N1 S1 120.59(12)
O1 C3 C4 109.74(14)
O2 C3 O1 122.45(15)
O2 C3 C4 127.81(16)
C3 C4 H4 117.0
C5 C4 C3 125.94(15)
C5 C4 H4 117.0
C13 C8 N1 120.19(14)
C9 C8 N1 119.12(15)
C9 C8 C13 120.69(15)
O3 C5 C13 118.72(14)
C4 C5 O3 119.21(15)
C4 C5 C13 122.06(15)
C19 C14 S1 119.65(13)
C15 C14 S1 119.45(13)
C15 C14 C19 120.80(16)
C14 C19 H19 120.6
C18 C19 C14 118.79(17)
C18 C19 H19 120.6
N1 C7 H7A 109.4
N1 C7 H7B 109.4
N1 C7 C6 111.23(13)
H7A C7 H7B 108.0
C6 C7 H7A 109.4
C6 C7 H7B 109.4
C8 C13 C5 121.93(15)
C12 C13 C8 118.32(15)
C12 C13 C5 119.74(15)
C13 C12 H12 119.5
C11 C12 C13 121.01(16)
C11 C12 H12 119.5
O3 C6 C7 110.27(14)
O3 C6 H6 109.4
O3 C6 C21 106.78(12)
C7 C6 H6 109.4
C21 C6 C7 111.53(14)
C21 C6 H6 109.4
C8 C9 H9 119.9
C10 C9 C8 120.11(16)
C10 C9 H9 119.9
O6 C21 C6 107.78(14)
O6 C21 H21A 110.2
O6 C21 H21B 110.2
C6 C21 H21A 110.2
C6 C21 H21B 110.2
H21A C21 H21B 108.5
O6 C22 H22A 108.7
O6 C22 H22B 108.7
O6 C22 C23 114.44(14)
H22A C22 H22B 107.6
C23 C22 H22A 108.7
C23 C22 H22B 108.7
C9 C10 H10 119.9
C9 C10 C11 120.22(16)
C11 C10 H10 119.9
C23 C28 H28 119.5
C27 C28 H28 119.5
C27 C28 C23 121.00(18)
C19 C18 H18 119.4
C19 C18 C17 121.26(17)
C17 C18 H18 119.4
C14 C15 H15 120.3
C16 C15 C14 119.46(16)
C16 C15 H15 120.3
C12 C11 C10 119.60(16)
C12 C11 H11 120.2
C10 C11 H11 120.2
C15 C16 H16 119.6
C15 C16 C17 120.77(17)
C17 C16 H16 119.6
C28 C23 C22 119.32(16)
C24 C23 C22 121.86(16)
C24 C23 C28 118.81(17)
C18 C17 C20 119.89(17)
C16 C17 C18 118.92(16)
C16 C17 C20 121.19(17)
O1 C2 H2A 110.2
O1 C2 H2B 110.2
O1 C2 C1 107.47(14)
H2A C2 H2B 108.5
C1 C2 H2A 110.2
C1 C2 H2B 110.2
C23 C24 H24 120.0
C23 C24 C25 119.97(17)
C25 C24 H24 120.0
C2 C1 H1A 109.5
C2 C1 H1B 109.5
C2 C1 H1C 109.5
H1A C1 H1B 109.5
H1A C1 H1C 109.5
H1B C1 H1C 109.5
C24 C25 H25 119.6
C26 C25 C24 120.88(19)
C26 C25 H25 119.6
C25 C26 H26 120.3
C27 C26 C25 119.44(19)
C27 C26 H26 120.3
C28 C27 H27 120.1
C26 C27 C28 119.87(18)
C26 C27 H27 120.1
C17 C20 H20A 109.5
C17 C20 H20B 109.5
C17 C20 H20C 109.5
H20A C20 H20B 109.5
H20A C20 H20C 109.5
H20B C20 H20C 109.5
loop_
_geom_bond_atom_site_label_1
_geom_bond_atom_site_label_2
_geom_bond_distance
S1 O4 1.4340(13)
S1 O5 1.4312(13)
S1 N1 1.6378(15)
S1 C14 1.7590(17)
O1 C3 1.356(2)
O1 C2 1.4523(19)
O6 C21 1.421(2)
O6 C22 1.4160(19)
O3 C5 1.3670(19)
O3 C6 1.439(2)
O2 C3 1.212(2)
N1 C8 1.436(2)
N1 C7 1.476(2)
C3 C4 1.468(2)
C4 H4 0.9500
C4 C5 1.337(2)
C8 C13 1.404(2)
C8 C9 1.388(2)
C5 C13 1.488(2)
C14 C19 1.392(2)
C14 C15 1.386(2)
C19 H19 0.9500
C19 C18 1.386(3)
C7 H7A 0.9900
C7 H7B 0.9900
C7 C6 1.513(2)
C13 C12 1.402(2)
C12 H12 0.9500
C12 C11 1.390(2)
C6 H6 1.0000
C6 C21 1.510(2)
C9 H9 0.9500
C9 C10 1.387(2)
C21 H21A 0.9900
C21 H21B 0.9900
C22 H22A 0.9900
C22 H22B 0.9900
C22 C23 1.511(3)
C10 H10 0.9500
C10 C11 1.393(3)
C28 H28 0.9500
C28 C23 1.396(2)
C28 C27 1.390(3)
C18 H18 0.9500
C18 C17 1.389(3)
C15 H15 0.9500
C15 C16 1.385(3)
C11 H11 0.9500
C16 H16 0.9500
C16 C17 1.388(3)
C23 C24 1.389(3)
C17 C20 1.510(3)
C2 H2A 0.9900
C2 H2B 0.9900
C2 C1 1.504(2)
C24 H24 0.9500
C24 C25 1.392(3)
C1 H1A 0.9800
C1 H1B 0.9800
C1 H1C 0.9800
C25 H25 0.9500
C25 C26 1.387(3)
C26 H26 0.9500
C26 C27 1.384(3)
C27 H27 0.9500
C20 H20A 0.9800
C20 H20B 0.9800
C20 H20C 0.9800
loop_
_geom_torsion_atom_site_label_1
_geom_torsion_atom_site_label_2
_geom_torsion_atom_site_label_3
_geom_torsion_atom_site_label_4
_geom_torsion
S1 N1 C8 C13 -99.48(16)
S1 N1 C8 C9 79.82(18)
S1 N1 C7 C6 137.40(13)
S1 C14 C19 C18 176.44(14)
S1 C14 C15 C16 -176.50(14)
O1 C3 C4 C5 179.70(17)
O6 C22 C23 C28 159.42(15)
O6 C22 C23 C24 -21.7(2)
O3 C5 C13 C8 -44.7(2)
O3 C5 C13 C12 134.57(17)
O3 C6 C21 O6 -56.98(17)
O4 S1 N1 C8 -175.05(11)
O4 S1 N1 C7 21.54(14)
O4 S1 C14 C19 158.51(14)
O4 S1 C14 C15 -25.02(16)
O2 C3 C4 C5 -0.4(3)
O5 S1 N1 C8 -44.92(14)
O5 S1 N1 C7 151.67(12)
O5 S1 C14 C19 27.18(17)
O5 S1 C14 C15 -156.35(14)
N1 S1 C14 C19 -87.70(15)
N1 S1 C14 C15 88.77(15)
N1 C8 C13 C5 -3.9(2)
N1 C8 C13 C12 176.87(15)
N1 C8 C9 C10 -177.61(15)
N1 C7 C6 O3 -60.28(17)
N1 C7 C6 C21 -178.75(13)
C3 O1 C2 C1 -175.71(15)
C3 C4 C5 O3 -0.8(3)
C3 C4 C5 C13 177.90(16)
C4 C5 C13 C8 136.69(18)
C4 C5 C13 C12 -44.1(2)
C8 N1 C7 C6 -25.7(2)
C8 C13 C12 C11 1.1(3)
C8 C9 C10 C11 0.4(3)
C5 O3 C6 C7 78.90(18)
C5 O3 C6 C21 -159.76(14)
C5 C13 C12 C11 -178.14(15)
C14 S1 N1 C8 69.76(13)
C14 S1 N1 C7 -93.65(13)
C14 C19 C18 C17 0.0(3)
C14 C15 C16 C17 0.1(3)
C19 C14 C15 C16 -0.1(3)
C19 C18 C17 C16 0.1(3)
C19 C18 C17 C20 179.64(17)
C7 N1 C8 C13 64.1(2)
C7 N1 C8 C9 -116.58(17)
C7 C6 C21 O6 63.55(17)
C13 C8 C9 C10 1.7(3)
C13 C12 C11 C10 0.9(3)
C6 O3 C5 C4 176.06(15)
C6 O3 C5 C13 -2.6(2)
C9 C8 C13 C5 176.81(15)
C9 C8 C13 C12 -2.4(2)
C9 C10 C11 C12 -1.7(3)
C21 O6 C22 C23 -67.59(19)
C22 O6 C21 C6 171.94(13)
C22 C23 C24 C25 179.85(17)
C28 C23 C24 C25 -1.3(3)
C15 C14 C19 C18 0.0(3)
C15 C16 C17 C18 -0.2(3)
C15 C16 C17 C20 -179.70(18)
C23 C28 C27 C26 0.7(3)
C23 C24 C25 C26 0.8(3)
C2 O1 C3 O2 -1.5(2)
C2 O1 C3 C4 178.42(14)
C24 C25 C26 C27 0.4(3)
C25 C26 C27 C28 -1.1(3)
C27 C28 C23 C22 179.43(16)
C27 C28 C23 C24 0.5(3)
loop_
_refln_index_h
_refln_index_k
_refln_index_l
_refln_F_squared_meas
_refln_F_squared_sigma
-1 -3 0 13.23 0.7
1 -3 0 14.7 0.77
1 -3 0 13.03 0.6
-1 -2 -1 18.9 0.87
1 -2 1 18.92 0.94
0 4 0 5.19 0.39
-1 -3 2 21.17 0.87
-1 3 2 20.53 0.83
-1 -3 2 22.93 0.84
1 -3 -2 20.66 0.81
-1 3 2 20.9 3.41
-1 3 2 22.01 1.08
1 3 -2 21.57 0.78
1 0 2 0.25 0.45
-1 0 -2 0.01 0.17
1 0 2 0.12 0.2
1 4 -1 670.77 7.11
-1 -4 1 619.94 6.44
-1 4 1 649.86 7.26
-1 4 1 643.98 6.85
1 -4 -1 656.11 7.5
-1 -4 1 631.99 6.7
-1 -4 1 637.91 6.95
-1 4 1 655.99 7.59
-1 -4 1 629.21 6.94
1 -4 -1 645.46 6.88
1 4 -1 649.33 7.17
1 -4 -1 650.39 7.26
-1 -1 -2 35.88 1.38
1 -1 2 42.37 2.17
-1 1 -2 39.76 1.5
1 -1 2 44.94 1.84
1 1 2 43.79 1.79
0 5 0 -0.01 0.33
0 -5 0 0.16 0.33
0 5 0 0.33 0.39
0 -5 0 0.31 0.41
0 5 0 0 0.08
-2 0 1 0.31 0.36
-2 0 1 -0.26 0.35
2 0 -1 -0.53 4.51
-1 0 3 2794.54 28.47
1 0 -3 2808.51 93.61
1 0 -3 2799.39 29.22
-1 0 3 2971.12 99.09
-1 0 3 2763.48 29.14
0 0 3 0.38 0.38
-2 1 1 1927.71 20.39
-2 1 1 1964.66 20.65
2 -1 -1 1893.31 19.86
2 -1 -1 1970.55 20.77
-2 -1 1 1839.98 19.57
1 -1 -3 1230.82 15
-1 1 3 1234.86 32.95
-1 -1 3 1224.68 13.25
1 1 -3 1255.93 13.51
-1 1 3 1219.14 12.78
1 1 -3 1243.22 12.94
-1 -1 3 1267.72 13.21
0 1 3 79.57 2.52
0 1 3 81.48 2.62
0 -1 3 78.28 2.52
2 0 0 27.29 2.22
-2 0 0 28.37 5.31
-2 0 0 28.92 1.18
0 4 2 17.83 1.23
0 4 -2 18.52 0.87
0 -4 -2 15.95 0.98
0 -4 2 18.3 1.69
0 -4 2 14.21 0.68
0 4 2 17.23 0.93
1 4 1 417.69 4.98
1 -4 1 395.36 5.14
-1 4 -1 409.55 4.86
1 -4 1 399.49 4.77
-1 -4 -1 398.52 4.82
-1 -4 -1 397.06 4.83
1 4 1 410.55 5.01
0 5 -1 931.53 9.73
0 -5 1 958.84 10.58
0 -5 -1 981.17 10.84
0 -5 1 933.58 9.75
0 5 1 987.49 10.86
0 -5 1 901.09 9.43
-2 1 0 1625.63 17.24
2 -1 0 1646.19 17.51
-2 1 0 1639 17.65
2 -1 0 1546.63 16.37
2 1 0 1527.55 16.21
-2 -1 0 1654.66 17.51
-2 -1 0 1592.44 16.99
-2 2 1 888.98 9.73
-2 2 1 881.49 10.29
-2 -2 1 881.82 12.14
2 -2 -1 861.85 10.31
-2 -2 1 899.1 9.8
2 -2 -1 894.93 10.02
2 0 -2 85.49 2.71
-2 0 2 89.21 3.93
-2 0 2 82.22 2.76
-1 4 2 167.24 2.47
-1 4 2 165.07 2.22
1 -4 -2 157.59 2.24
-1 -4 2 153.55 2.17
1 4 -2 161.33 2.14
-1 -4 2 156.59 2.25
-1 4 2 156.59 2.73
1 -4 -2 160.52 2.52
-1 4 2 160.67 2.58
1 -2 -3 4.12 1.41
-1 2 3 5.94 0.85
-1 -2 3 5.58 0.54
1 2 -3 5.88 0.36
-1 2 3 6.85 1.49
-1 2 3 5.46 1.41
-1 -2 3 5.26 1.65
0 2 3 1235.37 13.32
0 2 3 1260.78 13.34
0 -2 3 1234.63 13.08
2 -1 -2 118.15 1.94
-2 1 2 122.18 1.98
-2 -1 2 117.96 1.93
-2 1 2 124.52 2.11
-2 -1 2 120.19 2
-2 2 0 118.71 2.07
-2 -2 0 125.66 2.5
-2 2 0 134.84 2.48
2 -2 0 128.46 2.03
-2 -2 0 130.62 2.13
2 -2 0 132.83 2.23
2 2 0 134.19 2.51
1 3 2 913.01 10.06
-1 3 -2 937.08 10.33
1 -3 2 906.08 9.97
1 3 2 944.29 10.48
-1 -3 -2 921.4 10.21
1 5 0 662.28 7.57
1 -5 0 646.75 6.86
1 -5 0 658.04 7.88
-1 -5 0 639.68 7.09
1 5 0 680.76 7.52
1 5 0 640.23 6.94
-1 5 0 658.7 7.82
1 -5 0 658.12 7.4
-1 5 0 663.94 12.14
1 5 0 664.3 6.97
-1 -5 0 636.54 7.25
-1 -5 0 652.1 7.09
1 5 -1 214.31 2.69
1 -5 -1 218.81 3
-1 5 1 218.32 2.55
1 5 -1 229.52 3.3
-1 5 1 222.66 3.14
-1 -5 1 213.9 2.6
1 -5 -1 216.06 2.57
-1 -5 1 214.32 2.88
-1 5 1 225.33 3.79
-1 -5 1 213.5 2.66
1 -5 -1 239.74 4.12
1 -5 -1 214.68 3.28
1 5 -1 233.45 2.85
-2 2 2 3.27 0.39
-2 2 2 5.92 2.05
-2 -2 2 5.11 0.88
2 -2 -2 6.01 0.79
-2 -2 2 4.98 0.73
2 -2 -2 5.5 0.88
-2 -3 1 779.02 10.09
2 3 -1 855.3 9.19
2 -3 -1 823.3 9.31
-2 -3 1 833.23 9.1
2 3 -1 824.9 9.03
2 -3 -1 806.36 9.09
-2 3 1 834.74 16.67
-2 3 1 837.15 9.22
-2 0 -1 0.26 0.25
2 0 1 -0.13 1.31
-1 3 3 214.78 3.17
-1 -3 3 213.45 2.38
-1 3 3 225.72 3.13
1 3 -3 207.11 2.38
-1 -3 3 202.81 2.31
-1 3 3 214.3 3.32
-1 -3 3 210.71 3
0 -3 3 94.44 2.83
0 -3 3 98.55 2.99
0 3 3 100.23 3.44
0 3 3 99.01 3.09
2 -1 1 534.84 6.24
2 1 1 545.68 6.49
-2 -3 0 104.21 3.28
2 3 0 108.65 3.94
-2 3 0 109.88 3.92
2 -3 0 104.38 3.23
-2 3 0 110.01 4.03
-2 -3 0 106.56 3.3
2 -3 0 108.38 3.96
2 3 0 108.9 3.97
-2 -3 0 104.38 3.29
0 6 0 1761.95 18.72
0 -6 0 1869.13 19.91
0 6 0 1755.4 18.09
0 6 0 1815.57 19.45
0 -5 -2 329.35 4.35
0 5 -2 331.31 4.27
0 5 2 345.28 4.47
0 -5 2 311.65 3.69
0 -5 2 318.98 4.04
1 5 1 1144.15 12.54
1 5 1 1242.11 13.4
-1 5 -1 1244.76 13.31
-1 -5 -1 1203.8 12.99
1 -5 1 1201.28 12.88
-1 5 -1 1227.68 13.59
-1 -5 -1 1187.42 12.91
1 -5 1 1187.23 13.11
1 5 1 1177.31 12.45
-2 3 2 9.37 0.61
-2 -3 2 9.84 0.88
2 -3 -2 9.35 1.31
2 3 -2 7.76 0.86
-2 3 2 9.39 1.17
2 -3 -2 8.66 0.95
2 3 -2 9.05 0.47
-2 -3 2 8.66 0.86
2 -2 1 149.46 2.52
-2 2 -1 147.97 2.57
-2 -2 -1 150.07 2.58
2 -2 1 136.74 2.12
-2 -2 -1 140.69 2.46
2 2 1 152.6 2.94
-1 5 2 299 4.52
1 5 -2 306.22 3.78
-1 -5 2 291.67 3.27
-1 -5 2 294.03 3.66
-1 5 2 319.98 4.41
1 -5 -2 296.45 3.61
-1 -5 2 292.38 3.62
1 5 -2 294.27 3.66
-1 5 2 306.48 3.69
-1 5 2 310.81 4.06
1 -5 -2 300.18 4.24
1 -4 2 31.82 1.24
-1 4 -2 32.79 1.34
1 -4 2 32 1.41
-1 -4 -2 32.86 1.39
1 4 2 34.75 1.66
1 4 2 31.79 1.52
0 6 -1 258.5 20.43
0 -6 1 227.01 2.74
0 -6 -1 224.23 3.3
0 6 1 234.42 3.43
0 6 1 245.33 3.6
0 6 -1 230.51 2.71
0 -6 -1 231.75 4.34
0 -6 1 231.66 2.7
0 -6 1 236.67 3.56
0 -6 1 225.9 3.06
-2 0 3 0.05 0.31
2 0 -3 0.2 0.18
-2 0 3 0.07 0.24
2 0 -3 1.2 0.31
1 0 3 9999 333.21
1 0 3 9613.79 320.4
-2 1 3 0.79 0.62
-2 -1 3 0.5 0.28
2 -1 -3 0.89 0.4
2 -1 -3 0.93 0.45
2 -1 -3 0.29 0.28
2 1 -3 0.44 0.26
-2 1 3 0.85 0.62
2 1 -3 0.25 0.34
-2 -1 3 1.05 0.46
1 -1 3 3669.38 122.51
1 -1 3 3703.97 123.63
1 1 3 3766.77 125.74
2 -4 -1 921.44 10.36
-2 4 1 922.07 10.05
-2 4 1 944.28 10.74
-2 -4 1 938.28 10.06
-2 -4 1 907.16 9.72
2 4 -1 951.22 10.47
2 4 -1 949.43 10.15
2 -4 -1 906.09 9.87
-2 -4 1 900.26 10.11
2 4 -1 906.69 9.76
-1 -4 3 168.64 2.55
1 4 -3 167.73 2.17
-1 -4 3 166.77 1.9
-1 4 3 174.57 2.9
-1 4 3 174.89 2.85
-1 -4 3 166.03 2.1
-1 4 3 168.12 2.42
0 -4 3 352.92 4.35
0 4 3 374.69 4.88
0 4 3 368.54 4.66
0 -4 -3 359.23 4.58
1 -6 0 619.87 7.1
-1 6 0 634.67 7.32
-1 -6 0 615.62 6.72
1 6 0 629.26 6.85
-1 -6 0 617.96 7
-1 6 0 637.56 7.77
1 6 0 635.67 6.67
-1 -6 0 611.64 7.19
1 6 0 632.82 7.41
1 -6 0 652.08 7.84
1 -6 0 619.19 6.57
2 -4 0 2.09 0.75
2 4 0 1.83 0.46
-2 4 0 2.42 0.96
2 4 0 1.29 0.42
-2 4 0 1.86 0.7
-2 -4 0 1.56 0.72
2 -4 0 1.68 0.84
-2 -4 0 1.51 0.71
2 -4 0 1.54 0.46
-2 -4 0 1.66 0.55
2 4 0 1.83 0.62
2 -2 -3 27.08 1.34
-2 -2 3 25.98 1.14
-2 2 3 29.06 1.38
-2 -2 3 26.92 1.39
2 2 -3 26.6 1.2
-2 2 3 25.67 1.2
2 -2 -3 28.86 1.36
1 2 3 1667.24 17.71
1 2 3 1638.84 17.67
1 -2 3 1622.68 17.4
-1 -2 -3 1602.19 17.25
-2 -3 -1 106.8 3.52
2 -3 1 104.42 3.22
2 3 1 116.89 2.89
-2 -3 -1 109.21 3.96
2 -3 1 108.08 4.03
-2 3 -1 115.85 2.68
1 -6 -1 198.08 3.14
-1 6 1 210.68 3.03
-1 -6 1 208.27 2.65
1 -6 -1 210.84 2.53
1 6 -1 211.82 3.13
-1 -6 1 202.42 2.95
-1 6 1 209.54 2.41
1 6 -1 199.98 2.57
-1 -6 1 205.39 2.59
-1 6 1 213.46 3.4
1 6 -1 215.12 2.79
1 -6 -1 206.02 3.05
1 -6 -1 205.98 3.79
1 0 -4 0.11 0.11
-1 0 4 0.21 0.14
-1 0 4 -0.08 0.17
1 0 -4 0.2 0.32
-1 1 4 598.99 6.59
1 1 -4 601.02 6.69
1 -1 -4 591.35 6.39
-1 1 4 596 7.13
-1 1 4 607.75 7.02
-1 -1 4 615.21 6.84
-1 -1 4 605.44 7.27
2 4 -2 40.01 1.36
-2 4 2 41.34 1.82
-2 4 2 42.66 1.5
-2 -4 2 40.84 1.75
-2 4 2 40.08 1.89
2 4 -2 39.65 1.3
2 -4 -2 41.42 1.84
2 4 -2 40.74 1.49
2 -4 -2 40.29 1.47
-2 -4 2 36.95 1.27
0 0 4 853.47 9.12
0 0 4 889.22 9.93
0 1 4 1129.6 12.39
0 -1 4 1142.18 12.41
0 1 4 1133.84 12.05
0 1 -4 1138.68 12.36
1 2 -4 85.99 2.82
1 -2 -4 86.95 2.63
-1 2 4 71.27 4.33
-1 2 4 89.5 3.03
-1 2 4 75.61 3
-1 -2 4 89.13 2.96
-1 -2 4 87.12 2.68
-2 0 -2 1403.82 15.47
2 0 2 1267.31 13.98
0 -6 2 662.28 7.21
0 -6 -2 672.09 7.85
0 -6 2 677.01 7.83
0 6 -2 674.54 7.89
1 -5 2 122.89 2.3
1 5 2 135.15 2.7
1 -5 2 123.43 2.31
1 5 2 127.14 2.3
-1 5 -2 125.62 2.19
-1 -5 -2 125.17 2.85
1 6 1 480.36 5.44
1 6 1 509.04 6.15
-1 -6 -1 475.58 5.85
-1 6 -1 491.47 6.29
1 -6 1 485.2 6.26
1 -6 1 469.91 5.65
-1 -6 -1 470.97 6.04
1 6 1 498.77 6.25
-1 6 -1 481.61 5.68
-2 3 3 166.88 2.65
-2 -3 3 156.59 2.55
-2 -3 3 157.65 2.37
2 -3 -3 164.89 2.58
2 3 -3 169.48 2.3
2 -3 -3 165.45 3.2
-2 3 3 154.41 2.5
1 3 3 460.49 5.82
-1 -3 -3 447.32 5.67
1 -3 3 444.38 5.51
1 3 3 452.77 5.7
-2 1 -2 938.8 10.67
-2 -1 -2 926.17 10.65
2 1 2 916.78 10.44
2 -1 2 907.42 10.28
0 7 0 0.18 0.19
0 7 0 0 2.87
0 7 0 -0.05 1.62
0 -7 0 -0.02 0.19
0 -7 0 0.02 0.34
1 6 -2 59.24 2.05
-1 -6 2 56.72 2.02
-1 -6 2 51.59 2.72
-1 6 2 55.35 1.88
-1 6 2 56.31 2.02
-1 -6 2 54.03 2.07
-1 6 2 57.32 3.57
1 -6 -2 51.96 2.99
1 6 -2 52.35 1.77
-1 6 2 54.89 2.36
0 -2 -4 1668.12 17.53
0 2 4 1672.22 17.95
0 -2 4 1727.28 18.28
0 2 -4 1683.37 17.82
0 2 4 1700.37 17.9
-2 -5 1 594.11 6.61
-2 5 1 618.43 7.72
2 5 -1 622 6.92
-2 -5 1 614.17 6.71
2 5 -1 615.59 7.18
2 5 -1 598.29 6.58
2 -5 -1 608.98 7.37
-2 5 1 622.2 7.73
-2 5 1 627.1 7
2 -5 -1 606.55 6.86
-2 -5 1 612.49 7.03
2 4 1 96.55 3.57
-2 -4 -1 91.78 3.12
-2 -4 -1 94.45 3.01
-2 4 -1 93.69 3.04
2 -4 1 91.52 3.02
2 4 1 89.9 3.47
2 4 1 95.51 3.03
2 -4 1 90.92 2.86
1 -5 -3 71.52 2.99
-1 5 3 70.84 3.8
-1 -5 3 70.31 2.24
-1 -5 3 72.59 2.38
1 5 -3 59.78 4.06
1 5 -3 73.17 2.58
-1 5 3 72.39 2.51
-1 5 3 74.22 2.98
0 -5 -3 5.19 1.01
0 -5 3 8.16 0.51
0 -5 3 7.42 0.87
0 5 3 6.99 1.16
0 5 -3 4.73 1.13
0 5 3 4.25 0.66
-2 -2 -2 44.06 1.66
2 2 2 47.16 1.98
2 -2 2 42.55 1.68
-2 2 -2 47.31 1.86
-2 -2 -2 40.27 1.69
0 7 -1 552.28 6.02
0 -7 1 564.63 6.11
0 -7 1 579.57 6.2
0 -7 -1 560.45 6.95
0 7 1 568.85 5.97
0 -7 1 547.82 6.46
0 -7 -1 575.75 6.9
2 5 0 94.26 3.1
2 5 0 94.09 2.86
-2 -5 0 91.69 2.85
-2 -5 0 87.81 2.79
2 -5 0 87.12 3.08
-2 5 0 92.49 2.97
2 -5 0 89.67 2.92
2 -5 0 88.24 2.71
-2 5 0 88.27 2.89
-2 -5 0 91.15 2.87
2 5 0 92.5 3.14
2 5 0 90.57 2.91
1 3 -4 125.31 1.79
-1 -3 4 126.4 2.27
-1 -3 4 128.51 1.74
-1 3 4 131.2 2.38
-1 3 4 122.68 2.2
-1 3 4 126.19 2.58
-1 -3 4 118.46 1.36
1 -3 -4 122.94 1.95
2 5 -2 19.88 1.41
2 -5 -2 16.86 1.11
-2 -5 2 19.39 0.96
-2 -5 2 18.8 1.24
-2 5 2 18.76 0.81
2 5 -2 19.15 1.26
-2 -5 2 17.04 0.67
2 5 -2 17.89 0.67
2 -5 -2 17.7 0.79
-2 5 2 16.47 1.5
-2 5 2 19.04 1.07
2 0 -4 24.29 2.42
-2 0 4 24.23 1.34
2 0 -4 25.76 1.36
2 0 -4 26.35 1.67
-2 0 4 24.22 1.56
0 3 4 810.69 9.48
0 3 4 775.23 8.7
0 -3 -4 752.75 8.41
0 -3 4 762.16 8.52
-2 -4 3 17.96 2.37
2 4 -3 14.19 0.69
-2 4 3 16.92 1.47
-2 4 3 16 1.2
2 -4 -3 15.71 0.82
-2 4 3 15.94 1.15
2 -4 -3 16.6 1.67
-2 -4 3 13.29 1.36
1 4 3 152.98 3.06
1 4 3 155.18 2.73
1 -4 3 148.03 2.42
-1 -4 -3 146.93 2.94
-1 4 -3 150.13 2.6
2 -1 -4 3.95 0.66
-2 1 4 4.47 0.91
2 -1 -4 4.77 1.35
-2 -1 4 4.43 1.19
2 1 -4 4.99 0.63
-2 1 4 4.51 1.37
2 -1 -4 4.67 0.95
2 1 -4 4.64 0.75
1 7 0 136.3 2.67
-1 7 0 134.24 2.65
-1 -7 0 128.5 2.14
1 7 0 127.83 1.78
1 7 0 132.26 1.61
-1 7 0 130.23 3.83
-1 -7 0 126.47 2.19
-1 -7 0 127.59 1.76
1 -7 0 128.46 2.26
1 -7 0 138.71 3.44
1 -7 0 128.01 1.57
1 -7 -1 30.88 1.73
1 -7 -1 35.4 1.38
-1 7 1 33.28 1.44
-1 -7 1 31.73 1.2
-1 -7 1 30.69 1.34
-1 7 1 31.65 0.99
1 -7 -1 31.18 0.99
-1 -7 1 31 1.28
-1 7 1 33.46 2.03
1 7 -1 31.32 1.17
1 7 -1 35.53 1.5
1 -7 -1 32.93 1.5
1 7 -1 34.52 2.03
2 3 2 67.35 2.55
-2 -3 -2 61.08 2.64
-2 3 -2 64.63 2.37
2 -3 2 59.47 2.21
-2 -3 -2 60.45 2.46
-3 0 1 6.73 1.95
-3 0 1 4.78 1.72
3 0 -1 5.7 0.95
3 1 -1 1.62 0.72
3 -1 -1 1.13 0.64
-3 -1 1 1.76 0.63
-3 1 1 1.72 0.68
-3 1 1 1.61 0.58
-3 -1 1 1.09 0.6
-3 0 2 -0.06 0.43
3 0 -2 -0.02 0.19
-3 0 2 0.05 0.26
-2 2 4 0.38 0.17
2 -2 -4 2.13 0.81
-2 -2 4 1.79 0.58
2 -2 -4 2.36 0.75
2 2 -4 2.27 1.02
-2 2 4 2.81 0.63
2 2 -4 1.75 0.39
-2 2 4 1.51 0.85
2 -2 -4 1.78 0.51
-1 6 -2 4.07 0.72
1 -6 2 3.41 1.3
-1 -6 -2 5.25 1.4
1 6 2 5.11 1.02
-1 -6 -2 4.91 0.93
1 6 2 4.97 1.18
1 -6 2 4.48 0.67
-1 6 -2 6.13 1.53
2 5 1 322.38 4.31
2 5 1 328.87 4.39
2 5 1 313.02 4.24
2 5 1 320.58 4.47
-2 -5 -1 310.88 4.17
-2 5 -1 327.98 4.59
2 -5 1 316.69 4.48
2 -5 1 313.89 4.16
2 -5 1 314.52 5.09
-2 -5 -1 306.55 3.92
-1 -4 4 379.95 4.25
1 4 -4 374.61 4.2
-1 -4 4 384.73 5.03
1 -4 -4 384.45 4.98
-1 4 4 392.3 5.34
-1 4 4 388.33 7.1
-3 1 2 26.29 1.31
-3 1 2 26.65 1.27
3 -1 -2 22.13 1.03
-3 -1 2 22.67 1.22
3 1 -2 21.88 1.07
-3 -1 2 26.36 1.56
0 -7 2 45.72 1.51
0 7 -2 45.04 1.59
0 -7 -2 45.84 1.84
0 -7 2 44.87 1.48
0 7 -2 44.05 2.45
0 -7 2 46.1 1.76
0 7 2 49.21 2.17
0 7 2 50.42 2.17
0 -7 -2 44.68 1.89
-3 0 0 0.07 0.42
-3 0 0 -0.01 0.32
3 0 0 -0.21 0.72
-3 2 1 502.51 6.98
-3 -2 1 477.99 5.91
3 -2 -1 476.88 5.86
-3 -2 1 493.38 6.28
3 2 -1 491.08 6.06
3 -2 -1 509.83 6.51
-3 2 1 499.46 6.45
-1 7 -1 36.82 2.28
-1 -7 -1 34.97 1.45
1 7 1 40.02 1.99
1 7 1 38.38 1.69
-1 -7 -1 36.41 1.93
1 -7 1 34.96 2.14
1 7 1 35.35 1.25
1 -7 1 35.71 1.34
-1 7 -1 37.57 2.07
-2 6 1 2.59 0.89
-2 -6 1 2.47 0.68
2 -6 -1 2.08 0.74
2 6 -1 1.23 0.39
-2 -6 1 2.25 0.49
-2 6 1 1.94 0.74
2 -6 -1 1.7 1.13
2 6 -1 2.66 1.05
-2 -6 1 3 0.73
2 -6 -1 2.15 0.83
2 6 -1 2.45 0.72
2 6 -1 3.26 0.73
-2 -6 1 1.63 0.8
-2 6 1 2.63 0.87
1 0 4 0.01 0.25
-3 -1 0 512.78 6.48
-3 -1 0 520.33 6.66
-3 1 0 508.73 7.65
3 1 0 497.91 6.15
3 -1 0 496.69 6.11
-3 1 0 521.67 6.74
1 6 -3 693.94 7.92
-1 6 3 687.79 7.79
-1 6 3 707.25 8.71
-1 -6 3 666.15 7.45
1 6 -3 694.99 7.89
-1 6 3 719.07 8.64
-1 -6 3 682.8 7.89
0 -4 -4 172.83 3.03
0 -4 4 167.64 2.41
0 -4 4 169.33 2.69
0 4 4 175.93 2.88
0 4 4 184.92 3
0 6 -3 119.14 2.33
0 6 3 123.92 2.75
0 -6 3 108.9 3.89
0 6 3 126.51 2.41
0 -6 3 128.75 2.26
0 -6 -3 112.88 4.29
-3 -2 2 2.15 0.57
3 2 -2 1.55 0.47
3 2 -2 1.06 0.47
3 -2 -2 2.6 0.82
-3 2 2 2.89 1.11
3 -2 -2 1.74 0.78
-3 -2 2 1.9 0.5
-3 2 2 1.82 0.68
1 -1 4 41.05 1.98
1 -1 4 42.47 2.39
1 1 4 46.96 2
1 7 -2 275.78 3.49
-1 7 2 279.65 4.86
-1 -7 2 279.82 3.58
-1 -7 2 266.05 2.9
-1 7 2 290.83 3.98
-1 7 2 286.9 5.53
1 -7 -2 274.91 4.33
-1 -7 2 272.97 3.47
-1 7 2 282.4 3.46
-1 -7 2 272.1 3.89
2 6 0 73.03 2.61
-2 -6 0 71.19 2.6
2 6 0 73.92 2.39
-2 6 0 74.1 2.82
2 -6 0 74.66 2.53
2 6 0 74.67 2.65
-2 -6 0 71.73 2.4
2 -6 0 72.45 2.27
2 -6 0 70.48 3.1
-2 -6 0 70.3 2.73
2 6 0 74.25 2.75
-2 -6 0 71.76 2.26
2 4 2 139.68 2.84
2 4 2 132.13 2.29
2 -4 2 135.8 2.45
2 4 2 137.14 2.96
-2 4 -2 144.06 2.92
-2 -4 -2 133.33 3.02
2 -3 -4 160.08 3.01
-2 3 4 178.02 2.96
-2 -3 4 176.29 2.97
2 -3 -4 179.62 3.56
2 3 -4 165.18 2.03
2 3 -4 174.62 2.07
-2 3 4 161.44 2.9
-2 3 4 164.8 3.52
0 8 0 596.94 7.47
0 8 0 565.87 6.2
0 -8 0 562.6 7.11
0 -8 0 568.06 6.85
2 5 -3 336.01 4.11
-2 -5 3 312.32 3.86
-2 5 3 351.5 5.09
2 -5 -3 330.49 4.37
-2 5 3 334.18 4.72
-2 5 3 338.48 4.31
-2 -5 3 329.18 4.43
-1 -5 -3 250.42 3.74
1 -5 3 252.8 3.55
1 5 3 265.67 4.12
1 5 3 265.85 4.02
1 -5 3 246.95 4.09
-1 5 -3 265.43 4.27
3 -2 0 344.01 4.69
-3 2 0 375.18 4.95
-3 -2 0 382.61 5.23
-3 -2 0 375.37 10.59
3 2 0 382.49 5.18
-3 2 0 368.75 5.24
-2 6 2 706.96 7.88
-2 -6 2 708.47 8.12
2 6 -2 700.95 8.07
2 -6 -2 717.91 8.07
2 -6 -2 723.17 8.73
-2 -6 2 722.31 7.73
-2 -6 2 717.02 7.72
-2 6 2 733.6 8.7
-2 6 2 723.67 8.89
2 6 -2 740.39 8.56
-2 -6 2 703.11 8.15
2 6 -2 743.09 7.94
2 -6 -2 732.84 8.98
1 -2 4 346.35 4.72
1 -2 4 378.42 5.23
1 2 4 387.15 5.37
1 2 4 373.51 4.88
3 3 -1 222.33 3.21
3 -3 -1 207.88 3.31
-3 -3 1 216.16 3.28
3 -3 -1 219.48 3.48
-3 -3 1 218.99 3.61
-3 3 1 223.18 3.35
3 3 -1 217.24 3.21
3 0 -3 46.92 1.77
-3 0 3 52.78 1.96
-3 0 3 49.06 2.13
2 0 3 0.27 0.6
-2 0 -3 0.48 0.47
-1 0 5 28.62 2.54
-1 0 5 24.58 0.98
1 0 -5 25.07 1.28
-1 0 5 26.21 1.21
0 8 1 42.06 1.26
0 -8 -1 40.7 1.74
0 -8 1 43.91 1.83
0 8 1 39.52 1.96
0 8 1 42.04 1.46
0 -8 1 41.46 1.37
0 8 -1 41 1.4
0 8 1 45 2.44
0 -8 -1 42.64 1.83
0 -8 1 38.46 1.19
0 -8 1 40.63 1.7
-3 1 3 1.12 0.61
-3 -1 3 0.44 0.36
-3 1 3 0.69 0.48
3 1 -3 1.05 0.55
3 -1 -3 0.39 0.44
-3 -1 3 1.91 0.95
2 1 3 0.24 0.56
-2 1 -3 0.14 0.41
2 -1 3 0.47 0.33
-2 -1 -3 0.21 0.29
2 -1 3 -0.01 0.38
-2 -1 -3 0.05 0.43
3 -3 -2 0.71 0.37
3 3 -2 0.4 0.31
3 -3 -2 0.56 0.37
-3 -3 2 0.44 0.47
-3 -3 2 0.35 0.3
-3 3 2 0.04 0.29
-3 3 2 1.13 0.8
-1 1 5 11.51 1.84
1 -1 -5 13.33 0.94
-1 -1 5 13.48 0.73
1 1 -5 12.85 0.7
-1 1 5 14.68 0.85
-1 -1 5 13.52 2.35
-1 1 5 12.19 0.86
-1 -1 5 11.61 0.53
1 -1 -5 12.32 0.78
1 -5 -4 533.02 6.54
-1 -5 4 522.77 5.83
1 5 -4 555.59 6.23
-1 -5 4 545.77 5.93
-1 -5 4 543.61 6.66
-1 5 4 549.83 7.76
-1 5 4 555.23 7.63
-1 5 4 581.47 7.45
3 3 0 373.79 5.02
3 -3 0 382.3 5.31
-3 -3 0 374.98 5.1
-3 3 0 372.01 5.13
-3 3 0 378.87 4.97
-3 -3 0 376.66 5.14
3 3 0 385.74 5.3
3 -3 0 356.62 4.77
-3 -2 3 110.72 4.12
-3 2 3 116.31 2.44
3 2 -3 113.35 4.27
3 -2 -3 113.48 4.2
-3 2 3 120.59 2.29
-3 -2 3 119.16 2.28
3 -2 -3 120.29 2.31
3 2 -3 117.13 2.16
2 -2 3 91.01 3.18
-2 2 -3 97.36 3.4
2 -2 3 92.43 3.53
2 2 3 89.1 3.44
-2 -2 -3 90.58 3.41
3 0 1 363.09 4.82
-3 0 -1 381.07 5.21
-2 6 -1 222.39 3.39
2 6 1 228.38 3.73
2 -6 1 209.22 3.02
2 6 1 213.8 3.07
2 6 1 220.75 3.33
-2 -6 -1 214.86 3.43
2 6 1 209.23 2.86
2 -6 1 214.17 3.37
2 -6 1 214.74 3.88
1 3 4 20.14 1.21
1 -3 4 13.78 0.85
1 3 4 14.8 0.99
1 -3 4 14.02 0.83
-1 -3 -4 13.71 2.11
2 4 -4 20.94 1.13
2 -4 -4 22.67 1.8
-2 4 4 20.98 1.22
-2 4 4 19.63 3.45
2 -4 -4 17.84 0.93
-2 4 4 18.78 1.5
-2 -4 4 20.54 1.93
0 5 4 45.48 2.09
0 -5 -4 41.86 2.09
0 -5 -4 40.08 2.01
0 5 4 41.15 2.25
0 -5 4 38.84 1.54
0 -5 4 40.21 1.59
-1 -8 0 134.32 2.22
1 8 0 148.72 3
1 8 0 142.03 2.77
1 8 0 134.04 2.02
1 -8 0 132.81 1.61
-1 -8 0 129.87 2.37
-1 8 0 141.47 2.29
1 -8 0 127.66 2.41
1 -8 0 137.97 2.8
-1 -8 0 129.38 1.82
-1 8 0 137.65 3.61
1 8 0 136.45 1.67
1 -8 0 133.92 2.17
-1 2 5 114.75 2.38
-1 -2 5 114.69 2.31
-1 2 5 114.33 3.3
-1 2 5 113.25 4.05
1 2 -5 112.58 4.1
1 -2 -5 114.33 1.93
-1 -2 5 114.28 1.98
1 -2 -5 111.37 4.14
3 1 1 23.3 1.3
-3 -1 -1 26.89 1.22
3 -1 1 25.57 1.37
-3 1 -1 24.48 1.2
3 -1 1 21.98 1.5
3 1 1 26.6 1.43
1 8 -1 176.22 2.47
-1 -8 1 172.48 2.86
1 -8 -1 183.55 4.02
1 -8 -1 170.08 3.55
1 8 -1 184.86 2.75
-1 8 1 189.97 3.72
1 -8 -1 183.87 2.78
-1 -8 1 180.29 2.57
-1 8 1 187.35 2.82
-1 8 1 176.87 2
-1 -8 1 178.06 2.33
1 8 -1 198.78 3.63
0 0 5 0.07 0.12
0 0 5 0.63 0.23
0 0 -5 0.27 0.26
1 7 2 30.6 1.39
1 7 2 32.03 1.68
-1 -7 -2 29.77 1.59
-1 7 -2 33.09 1.76
1 -7 2 29.82 1.38
-1 7 -2 32.7 2.47
1 -7 2 30.29 1.42
-1 -7 -2 28.68 1.45
0 1 -5 10.77 1.38
0 1 5 8.4 0.89
0 -1 5 9.64 1.7
0 1 5 11.76 1.21
-2 5 -2 230.76 4.74
2 5 2 223.08 4.45
2 5 2 217.33 4.23
2 5 2 234.66 4.68
-2 -5 -2 211.62 4.33
2 5 2 224.39 4.32
2 -5 2 227.21 4.53
-3 -4 1 0.32 0.37
-3 4 1 0.94 0.48
-3 -4 1 0.46 0.22
3 4 -1 0.81 0.32
3 -4 -1 0.05 0.34
3 -4 -1 0.09 0.37
-3 4 1 0.7 0.49
3 4 -1 -0.07 0.27
-3 -2 -1 41.63 1.19
3 -2 1 40.82 1.9
3 -2 1 38.77 1.75
-3 2 -1 41.96 1.56
3 2 1 42.42 1.58
3 2 1 38.79 2.28
2 -7 -1 0.26 0.37
2 7 -1 0.16 0.29
-2 -7 1 1.35 0.43
-2 -7 1 0.24 0.16
2 7 -1 0.45 0.38
-2 7 1 0.12 0.24
2 7 -1 0.77 0.19
-2 -7 1 0.39 0.23
2 -7 -1 0.42 0.31
2 -7 -1 0.27 0.41
-2 7 1 0.24 0.65
-2 7 1 0.56 0.15
-2 -7 1 -0.05 0.3
2 7 -1 0.39 0.34
3 4 -2 2.67 0.9
3 4 -2 2.05 0.55
-3 4 2 3.28 1.29
-3 -4 2 2.19 0.81
-3 -4 2 2.27 0.77
3 -4 -2 2.59 0.76
3 -4 -2 1.99 0.93
-3 4 2 3.14 1.09
-1 7 3 126.09 2.53
-1 -7 3 117.54 2.34
1 -7 -3 119.9 2.76
-1 7 3 120.6 3.93
-1 -7 3 125.16 2.62
1 7 -3 124.95 3.1
-1 7 3 123.39 4.1
-1 -7 3 122.92 2.53
0 -7 3 149.76 3.09
0 -7 3 168.01 3.42
0 7 -3 161.43 3.71
0 7 3 164.72 3.99
0 -7 -3 152.52 3.58
3 -3 -3 3.19 1.47
3 3 -3 3.81 1.17
-3 -3 3 5.61 1.69
3 -3 -3 5.97 0.9
-3 3 3 5.49 1.69
-3 -3 3 5.77 1.72
3 -3 -3 3.56 1.5
-3 3 3 6.19 3.08
-2 -6 3 0.03 0.24
2 -6 -3 0.28 0.36
-2 -6 3 0.41 0.21
-2 6 3 1.09 0.58
-2 -6 3 0.04 0.17
2 6 -3 0.33 0.36
2 -6 -3 0.19 0.21
2 6 -3 0.39 0.35
-2 6 3 0.64 0.3
-2 6 3 1.06 0.36
2 -3 3 39.13 1.8
-2 -3 -3 36.36 2.31
2 3 3 38.85 1.92
-2 3 -3 37.26 1.73
1 6 3 32.36 1.93
1 6 3 34.14 1.79
-1 6 -3 31.15 2.29
-1 -6 -3 30.63 1.54
1 -6 3 32.47 1.56
1 -6 3 29.84 1.53
0 -2 5 74.58 2.18
0 2 5 72.59 1.86
0 2 -5 73.4 2.21
0 2 5 75.66 2.12
0 8 -2 17.82 1.76
0 8 -2 19.79 0.97
0 8 2 20.98 1.48
0 -8 -2 16.42 1.02
0 -8 2 21.04 1.23
0 -8 -2 16.65 1.03
0 8 2 22.02 1.33
0 -8 2 19.33 0.93
0 -8 2 19.74 1.29
-2 0 5 -0.2 0.62
-2 0 5 -0.05 0.36
2 0 -5 0.28 0.3
2 0 -5 0.07 0.13
2 0 -5 0.33 0.23
1 3 -5 96.75 2.19
-1 -3 5 96.23 2.42
1 -3 -5 97.05 2.49
-1 3 5 93.85 2.54
-1 3 5 96.48 2.62
-1 -3 5 96.3 2
-1 3 5 104.24 2.66
-1 -8 -1 51.08 1.68
-1 -8 -1 49.06 1.8
1 -8 1 55.45 2.84
-1 8 -1 50.79 1.74
1 -8 1 51.96 1.35
-1 8 -1 50.46 2.25
1 8 1 59.58 2.26
1 8 1 52 1.31
1 8 1 56.19 2.1
-2 -7 0 9.29 1.05
2 7 0 10.68 0.83
2 7 0 8.52 0.63
2 -7 0 9.07 0.92
-2 -7 0 8.04 0.95
-2 7 0 9.87 1.71
2 7 0 7.77 0.5
2 -7 0 9.95 0.77
-2 7 0 8.41 1.03
2 -7 0 9.33 1.36
2 7 0 9.92 1.73
-2 -7 0 8.89 1.09
3 4 0 47.69 1.63
-3 -4 0 45.27 1.61
-3 4 0 48.93 1.55
-3 -4 0 49.09 1.45
3 -4 0 47.16 2.38
-3 4 0 50.05 1.74
3 4 0 44.04 1.19
3 -4 0 43.35 1.23
2 -1 -5 74.28 1.97
-2 1 5 82.98 2.36
2 -1 -5 80.01 1.9
-2 1 5 77.83 1.73
2 1 -5 73.27 2.51
2 -1 -5 76.37 1.61
-2 -1 5 74.79 2.94
-2 -1 5 79.86 2.19
2 1 -5 80.74 1.85
2 1 -5 75.23 1.43
-2 1 5 68.78 1.74
1 -4 4 313.66 5.79
1 4 4 322.9 6.06
1 -4 4 323.04 6.18
1 4 4 324.24 6.29
-1 -4 -4 300.05 5.81
-1 8 2 334.92 5.64
-1 8 2 367.33 7.23
1 -8 -2 335.51 6.27
-1 -8 2 327.55 5.97
-1 -8 2 339.79 6.39
-1 -8 2 329.4 5.68
1 8 -2 329.76 5.74
1 8 -2 358.3 6.76
-1 8 2 329.41 6.1
-1 8 2 343.32 6.84
-2 -7 2 8.23 0.92
-2 -7 2 9.12 0.89
2 7 -2 9.87 1.19
2 -7 -2 8.63 0.9
-2 -7 2 8.85 0.65
-2 7 2 9.11 0.82
-2 7 2 9.21 1.01
-2 -7 2 8.79 0.74
2 7 -2 9.49 0.98
2 -7 -2 6.91 1.01
2 7 -2 8.58 0.9
-2 7 2 9.77 0.84
2 -7 -2 8.99 0.75
-3 0 4 -0.06 0.4
3 0 -4 0.34 0.38
3 0 -4 0.44 0.33
-3 0 4 0.06 0.25
3 3 1 124.79 2.82
-3 3 -1 125.52 3
3 -3 1 119.82 2.65
3 -3 1 126.32 2.9
-3 -3 -1 124.77 3.39
3 3 1 123.76 3.08
-1 -6 4 547.87 9.44
-1 6 4 559.78 10.1
-1 -6 4 513.55 8.53
1 -6 -4 516.01 9.22
-1 6 4 535.38 9.44
-1 -6 4 530.3 8.66
1 6 -4 545.19 9.16
-1 6 4 553 9.64
-2 5 4 115.09 2.96
-2 5 4 114.85 3.08
2 -5 -4 119.1 3.2
2 5 -4 122.25 2.57
-2 -5 4 115.72 2.69
-2 5 4 116.38 2.9
2 5 -4 113.66 2.61
2 -5 -4 110.41 2.6
-2 5 4 123.68 3.1
-2 2 5 313.94 5.57
2 -2 -5 313.57 5.86
2 2 -5 330.79 5.63
-2 -2 5 327.38 6.21
2 2 -5 319.22 6.11
-2 2 5 314.94 5.93
2 2 -5 320.94 5.19
2 -2 -5 321.23 5.95
-2 2 5 314.36 5.78
2 -2 -5 334.61 5.81
-2 -2 5 295.07 5.12
2 2 -5 308.79 4.96
3 1 -4 4.93 1.58
-3 -1 4 2.96 0.95
3 -1 -4 5.25 1.42
3 -1 -4 5.75 1.55
-3 1 4 1.6 1.33
3 -1 -4 3.57 1.32
3 1 -4 2.6 1.42
-3 1 4 0.42 0.26
-3 -1 4 4.2 1.59
0 -3 -5 34.69 1.91
0 3 5 35.98 1.93
0 3 5 37.87 1.8
0 -3 5 36.52 1.96
0 -9 0 0.09 0.25
0 -9 0 0.05 0.18
0 9 0 -0.4 1.68
0 9 0 -0.01 0.18
3 5 -1 3.08 0.94
3 -5 -1 3.2 1.23
-3 -5 1 2.92 0.77
-3 5 1 3.52 2.32
3 5 -1 2.82 0.59
3 5 -1 2.45 0.63
-3 -5 1 3.24 1
-3 5 1 3.56 1.11
3 5 -1 4.53 1.63
3 -5 -1 1.75 0.88
0 6 4 157.24 3.63
0 -6 -4 148.53 3.65
0 -6 4 143.15 3.1
0 -6 4 146.08 3.01
0 6 4 164.27 3.8
-3 -4 3 223.04 4.47
-3 4 3 225.49 4.43
3 -4 -3 213.66 4.23
-3 4 3 231.04 4.72
-3 -4 3 222.03 4.23
3 4 -3 210.53 4.02
3 4 -3 224.04 3.95
3 -4 -3 225.99 4.8
3 -4 -3 217.17 4.47
2 4 3 26.03 1.66
2 4 3 27.09 1.74
2 -4 3 26.95 1.8
2 4 3 27.1 1.33
-2 -4 -3 27.19 1.61
-2 4 -3 28.43 1.7
-1 4 5 212.18 4.61
-1 -4 5 209.36 4.23
1 -4 -5 207.55 4.12
-1 -4 5 194.17 3.24
-1 4 5 212.77 4.11
-1 4 5 222.99 4.85
-1 -4 5 207 3.74
-3 2 4 384.15 7.19
3 -2 -4 379.88 6.81
3 2 -4 369.27 6.82
3 -2 -4 375.96 6.78
3 -2 -4 374.38 6.99
-3 2 4 378.93 7.96
-3 -2 4 365.95 6.82
-3 -2 4 375.15 6.89
2 7 1 192.5 3.63
-2 -7 -1 189.3 4.06
-2 7 -1 197.57 5.05
2 -7 1 187.12 3.54
2 -7 1 193.13 4.05
2 7 1 194.4 3.7
2 7 1 199.56 3.96
2 -7 1 192.23 4.68
2 7 1 207.49 4.64
-2 -7 -1 194.04 4.22
2 6 2 13.46 0.96
2 6 2 13.44 1.06
2 -6 2 12.17 1.14
-2 -6 -2 14.19 1.03
2 6 2 13.57 1
-2 6 -2 14.31 1.48
2 -6 2 13.43 1.15
2 6 2 13.98 1.4
-3 -5 2 1.5 0.43
-3 -5 2 1.5 0.6
3 5 -2 0.5 0.37
3 -5 -2 1 0.78
3 -5 -2 1.26 0.54
-3 5 2 1.38 0.65
3 5 -2 1.4 0.5
3 5 -2 2.59 0.88
-3 5 2 3.11 1.03
0 9 1 1.51 0.42
0 9 1 1.37 0.26
0 -9 1 1.59 0.61
0 9 1 1.84 1.27
0 9 -1 0.85 0.89
0 9 1 1.24 0.5
0 9 -1 1.42 0.49
0 -9 -1 1.18 0.7
0 -9 1 1.39 0.8
0 -9 1 0.6 0.24
0 -9 1 1.42 0.33
0 -9 -1 1.94 0.55
-2 -3 5 0.02 0.05
2 3 -5 0.2 0.08
-2 3 5 0.06 0.26
2 -3 -5 0.45 0.45
2 3 -5 0.36 0.23
-2 3 5 0.2 0.27
2 -3 -5 0.1 0.2
-2 -3 5 0.23 0.42
-2 3 5 0.22 0.44
3 0 2 -0.02 0.74
3 0 2 1.01 0.74
3 -5 0 63.01 1.73
-3 5 0 67.18 3.83
-3 -5 0 68.05 1.75
-3 -5 0 67.77 2
3 -5 0 65.1 2.01
3 5 0 70.07 2.11
3 5 0 65.08 2.4
-3 -5 0 61.71 1.73
3 5 0 71.61 2.56
3 -5 0 65.9 2.44
-3 5 0 70.61 1.84
3 -4 1 122.08 2.91
3 -4 1 113.34 2.78
3 4 1 131.32 3.81
3 4 1 126.12 2.84
-3 -4 -1 120.69 2.98
-3 -4 -1 127.08 3.09
-3 4 -1 124.86 2.94
1 -5 4 188.15 4.06
1 5 4 195.67 4.17
1 -5 4 185.92 3.83
-1 -5 -4 184.32 5
1 5 4 184.04 4.94
3 -1 2 158.06 4.26
3 -1 2 177.73 4
-3 -1 -2 172.22 4.19
-3 1 -2 178.74 4
3 1 2 179.54 4.11
-1 -8 -2 11.83 1.22
1 8 2 14.07 1.15
1 8 2 13.63 0.74
-1 -8 -2 14.3 1.33
1 -8 2 14.94 1.44
-1 8 -2 13.24 2.07
1 -8 2 12.91 1.08
1 8 2 14.32 1.86
-1 8 -2 14 1.07
0 -4 -5 1266.44 20.66
0 -4 5 1282.77 20.91
0 4 5 1349.78 22.29
0 4 5 1312.36 21.45
0 -4 5 1257.87 20.36
1 9 0 108.35 2.07
-1 -9 0 100.85 3.4
1 9 0 115.57 3.51
1 -9 0 104.01 2.46
1 -9 0 111.79 3.41
1 -9 0 106.23 1.79
-1 9 0 111.67 4.02
-1 9 0 106.29 2.32
-1 -9 0 104.8 2.09
1 9 0 109.56 1.93
1 9 0 111.17 2.56
-1 -9 0 104.96 2.41
1 -9 0 104.74 2.89
-2 7 3 195.04 3.8
-2 7 3 194.45 4.61
-2 7 3 194.78 4.3
2 -7 -3 191.11 3.63
2 -7 -3 194.56 4.1
2 7 -3 199.27 3.94
2 7 -3 204.21 3.91
-2 -7 3 188.27 3.68
-2 -7 3 188.25 3.2
-2 -7 3 191.81 3.77
-3 -3 4 170.33 3.83
3 -3 -4 174.34 4.22
-3 3 4 167.45 3.87
3 -3 -4 162.46 3.59
3 -3 -4 159.75 3.73
-3 -3 4 154.55 5.64
-3 3 4 175.53 7.07
-1 -7 -3 96.98 2.9
1 7 3 110.27 2.99
-1 7 -3 102.05 2.54
1 -7 3 102.21 3.12
1 7 3 101.64 3.4
1 -7 3 97.55 2.58
-1 9 1 -1.42 1
-1 -9 1 -0.23 0.43
1 9 -1 0.07 0.36
-1 -9 1 0.14 0.19
1 -9 -1 -0.05 0.44
-1 -9 1 0.32 0.21
1 9 -1 -0.07 0.17
1 -9 -1 0.28 0.4
-1 9 1 0.43 0.19
2 8 -1 125.64 2.19
-2 -8 1 129.72 2.79
-2 8 1 137.83 2.58
2 -8 -1 135.06 2.57
2 8 -1 132.07 2.68
-2 -8 1 134.77 2.82
2 8 -1 143.43 2.89
2 8 -1 137.31 3.31
2 -8 -1 125.78 2.83
-2 -8 1 128.29 3.11
-2 8 1 136.71 4.52
-2 8 1 135.79 3.12
1 0 5 166.26 4.42
3 2 2 587.8 10.33
3 -2 2 537.65 9.51
-3 2 -2 575.35 10.25
-3 -2 -2 551.6 9.98
3 -2 2 516.77 9.19
-1 -8 3 88.01 2.1
-1 8 3 91.08 4.38
-1 -8 3 82.09 1.82
1 -8 -3 86.73 2.81
-1 -8 3 82.67 1.66
-1 8 3 88.58 1.92
1 8 -3 90.28 2.72
-1 8 3 87.81 2.77
-1 -8 3 90.3 2.59
0 8 -3 102.84 2.74
0 8 3 105.75 3.4
0 -8 3 96.19 2.11
0 -8 3 95.44 2.57
0 -8 -3 99.29 2.81
0 8 3 107.87 3.4
0 -8 3 95.23 2.01
-1 1 -5 147.22 3.87
1 1 5 152.57 3.95
1 -1 5 141.34 3.51
1 -1 5 146.16 3.62
-2 6 4 11.6 1.47
2 -6 -4 9.14 1.13
-2 -6 4 7.92 1.2
-2 -6 4 8.68 0.85
2 6 -4 8.85 2.46
2 6 -4 11.14 1.19
2 -6 -4 10.29 2.15
-2 6 4 8.49 0.89
-2 6 4 8.99 1.48
-2 6 4 9.27 0.86
2 0 4 753.91 13.59
3 5 -3 29.53 1.27
-3 -5 3 30.61 2.01
-3 5 3 30.4 2.54
3 -5 -3 28.14 2.18
3 -5 -3 25.4 1.74
-3 5 3 27.87 1.4
3 5 -3 28.78 1.58
-3 -5 3 29.16 2.26
3 -5 -3 27.12 1.35
2 -8 0 26.16 1.65
-2 8 0 24.57 2.04
2 8 0 22.76 1.75
2 8 0 25.33 1.3
-2 -8 0 24.8 1.38
2 -8 0 23.8 1.01
-2 8 0 28.15 1.72
2 8 0 26.24 1.2
2 8 0 27.13 1.46
-2 -8 0 25.05 2.29
2 -8 0 24.81 1.71
2 5 3 277.04 5.28
-2 5 -3 285.94 5.8
2 5 3 298.87 5.77
-2 -5 -3 274.35 5.58
2 -5 3 267.19 5.2
2 5 3 280.72 5.61
2 -4 -5 3.61 0.8
2 4 -5 2.64 0.47
-2 4 5 2.81 0.98
-2 -4 5 2.26 0.84
-2 4 5 4.05 1.11
2 4 -5 3.47 0.53
2 -4 -5 4 0.98
-2 -4 5 2.65 0.53
-2 4 5 3.4 1.15
2 -1 4 -0.57 0.46
2 -1 4 0.48 0.39
2 1 4 0.65 0.94
-2 -1 -4 0.75 0.56
1 -5 -5 1.72 0.4
-1 -5 5 1.79 0.67
-1 5 5 1.36 0.73
-1 5 5 0.88 0.76
-1 -5 5 0.24 0.28
-1 5 5 0.7 0.38
-1 -5 5 1.63 0.62
-1 7 4 40.69 2.04
-1 7 4 41.7 1.13
1 -7 -4 37.81 1.86
-1 -7 4 43.81 1.47
-1 7 4 43.89 3.42
1 7 -4 42.97 1.9
1 -7 -4 38.06 2.27
-1 -7 4 38.71 1.59
0 -9 2 90.96 1.87
0 -9 -2 86.95 2.51
0 9 -2 94.12 2.34
0 -9 2 91.92 1.91
0 9 2 96.78 2.62
0 9 -2 96.27 3.51
0 9 2 93.9 2.96
0 -9 2 94.21 2.42
3 6 -1 116.52 2.61
-3 6 1 123.4 2.97
3 6 -1 111.12 2.32
3 -6 -1 116.14 2.53
3 -6 -1 116.2 2.89
-3 6 1 119.28 2.56
3 6 -1 117.93 2.7
3 6 -1 121.79 3.14
-3 -6 1 120.31 2.9
-3 -6 1 114.44 2.57
-3 -6 1 112.98 2.65
-1 -9 -1 242.48 4.79
1 9 1 278.8 5.42
1 9 1 269.51 5.47
1 9 1 253.32 4.42
1 -9 1 254.51 5.66
-1 9 -1 247 5.63
1 -9 1 247.52 4.7
-1 9 -1 247.6 5.59
-1 -9 -1 245.15 4.76
2 8 -2 26.4 1.63
2 -8 -2 24.5 1.42
-2 -8 2 22.84 1.13
2 8 -2 24.68 1.74
-2 8 2 24.71 1.07
-2 -8 2 22.83 1.37
-2 -8 2 24.75 1
-2 8 2 23.76 1.3
2 8 -2 26.18 1.48
2 -8 -2 25.21 1.43
-2 8 2 25.92 3.19
-2 -8 2 24.31 1.3
2 -8 -2 23.75 1.35
1 -2 5 75.35 2.83
1 -2 5 75.02 2.24
1 2 5 77.69 2.32
1 2 5 79.54 2.72
3 6 -2 522.78 9.15
3 6 -2 501.82 8.78
3 6 -2 485.32 8.23
-3 6 2 528.76 9.58
-3 -6 2 491.67 8.32
-3 6 2 512.79 8.84
3 6 -2 522.23 8.84
3 -6 -2 501.46 8.62
-3 -6 2 505.13 8.86
3 -6 -2 499.07 9.12
3 3 2 154.74 3.35
-3 3 -2 155.41 3.51
-3 -3 -2 154.42 3.6
3 -3 2 135.53 4.29
3 3 2 159.84 4.3
-1 -9 2 34.73 5.2
1 -9 -2 41.05 2.63
1 9 -2 36.14 1.97
-1 9 2 36.42 1.48
-1 9 2 36.59 3.33
1 9 -2 37.59 3.22
-1 -9 2 34.58 1.94
-1 9 2 36.21 1.82
-1 -9 2 36.6 1.88
-1 9 2 35.85 2.1
0 7 -4 89.84 2.82
0 7 4 81.96 3.18
0 7 4 96.62 2.64
0 -7 4 87.63 2.03
0 -7 4 97.58 2.33
2 2 4 318.67 6.24
2 -2 4 322.04 6.81
-3 4 4 241.22 5.02
3 -4 -4 246.02 5.42
-3 -4 4 240.77 4.83
-3 4 4 235.66 5.44
-3 -4 4 233.86 4.52
3 -4 -4 229.23 4.55
3 -4 -4 232.36 4.99
3 5 1 8.32 1.71
-3 -5 -1 9.08 1.03
3 -5 1 8.62 0.78
-3 5 -1 10.08 1.05
-3 -5 -1 10.1 0.77
3 5 1 9.37 1.01
3 -5 1 10.19 1.05
3 5 1 10.71 1.34
-1 0 6 -0.12 0.24
1 0 -6 0.31 0.31
-1 0 6 0.13 0.1
0 5 5 523.01 9.72
0 -5 5 481.54 8.28
0 -5 -5 474.38 8.44
0 -5 5 471.81 8.07
0 5 5 509.49 8.97
-2 -7 -2 75.92 2.57
2 7 2 82.4 2.28
2 -7 2 78.86 3.17
2 7 2 79.13 2.18
2 7 2 80.43 3.4
2 -7 2 80.19 2.23
2 7 2 78.24 2.57
-2 7 -2 78.6 2.13
-3 -6 0 574.97 9.86
3 6 0 590.06 10.43
3 -6 0 559.77 9.53
-3 6 0 576.72 9.92
-3 -6 0 575.08 10.04
-3 6 0 584.61 10.46
3 -6 0 554.12 9.93
3 6 0 561.36 9.7
3 6 0 597.89 10.42
-3 -6 0 556.14 9.62
3 6 0 560.69 9.65
1 -1 -6 18.03 2.27
-1 1 6 17.98 1.17
-1 -1 6 17.58 0.84
-1 -1 6 19.28 1.22
-1 1 6 18.49 1.17
1 1 -6 17.42 1.49
-1 -1 6 18.38 2.61
1 6 4 22.66 1.75
1 6 4 23.33 1.8
1 -6 4 20.42 1.3
1 -6 4 19.08 1.55
3 0 -5 103.75 2.87
-3 0 5 102.37 15.26
3 0 -5 101.19 4.13
-3 0 5 97.04 13.9
2 8 1 4.59 1
2 8 1 6.09 0.97
2 8 1 6.85 1.28
-2 8 -1 4.61 2.53
2 8 1 4.26 0.66
-2 8 -1 5.97 1.67
-2 -8 -1 5.75 1.47
2 -8 1 4.45 1.77
2 -8 1 6.12 1.41
2 -8 1 4.02 0.58
1 -3 5 117.31 3.03
1 -3 5 114.75 3.25
1 3 5 117.04 2.99
1 3 5 122.61 3.36
-3 -1 5 749.58 13.03
3 -1 -5 745.05 12.61
-3 1 5 757.34 13.62
3 -1 -5 738.49 12.34
3 1 -5 740.2 12.27
-3 1 5 750.05 13.03
-3 -1 5 738.01 12.96
2 -3 4 120.54 3.33
2 3 4 129.18 3.91
-2 3 -4 122.48 3.16
-1 2 6 6.29 1.59
-1 -2 6 4.39 1.32
-1 -2 6 3.53 0.8
1 2 -6 3.33 0.69
1 -2 -6 5.37 1.09
-1 -2 6 2.84 0.45
-1 2 6 4.07 0.92
1 -2 -6 5.08 0.65
0 -10 0 935.77 15.87
0 10 0 924.3 14.97
0 10 0 981.58 16.81
-2 5 5 20.06 1.91
-2 5 5 19.64 1.3
-2 -5 5 22.59 2.51
2 5 -5 19.95 1.86
2 5 -5 19.69 0.95
2 -5 -5 21.93 1.74
-2 5 5 21.39 1.64
-4 0 2 10.02 1.44
-4 0 2 9.88 1.77
-4 0 1 -0.44 0.47
-4 0 1 0.27 0.34
-3 -4 -2 84.95 2.48
3 4 2 87.37 2.37
-3 4 -2 90.29 2.58
-3 -4 -2 80.79 2.26
3 -4 2 78.67 2.37
3 4 2 88.34 2.9
3 -6 -3 14.77 1.4
3 6 -3 15.92 1.07
-3 -6 3 13.49 0.88
-3 6 3 15.6 0.97
3 6 -3 16.22 1.67
-3 6 3 15.02 1.27
-3 -6 3 18.27 1.15
3 -6 -3 13.72 1.16
-3 6 3 15.64 1.74
3 6 -3 15.39 1.92
-4 -1 2 126.25 4.13
4 1 -2 120.54 2.81
-4 -1 2 109.89 2.73
-4 1 2 132.49 3.07
-4 1 2 127.32 3.22
3 2 -5 27.28 2.06
-3 2 5 21.34 7.99
-3 -2 5 26.42 10.62
-3 2 5 15.09 7.56
3 -2 -5 24.69 10.55
3 -2 -5 19.64 3.27
3 -2 -5 28.81 1.76
-3 -2 5 22.8 10.09
2 6 3 58.98 1.85
2 6 3 61.96 2.68
-2 6 -3 60.59 1.89
2 -6 3 56.67 1.93
2 -6 3 55 2.23
2 6 3 60.09 2.13
-4 -1 1 17.27 1.65
4 1 -1 16.51 4.27
-4 1 1 18.67 5.52
-4 1 1 18.51 1.27
-4 -1 1 15.87 1.29
2 0 -6 0.27 0.14
-2 0 6 0.75 0.6
-2 0 6 0.45 0.2
2 0 -6 0.36 0.13
0 0 6 1346.89 21.73
0 0 6 1397.42 6.56
0 0 -6 1372.46 6.42
-1 -6 5 22.57 1.16
1 6 -5 21.09 1.2
-1 -6 5 24.33 2.57
1 -6 -5 20.91 1.49
-1 -6 5 21.29 1.24
-1 6 5 22.26 2.3
-1 6 5 22.91 2.89
-1 6 5 22.21 1.72
0 10 1 4.73 0.43
0 -10 1 5.86 1.72
0 10 1 6.57 2.45
0 10 1 6.78 2.19
0 -10 1 5.31 1.35
0 -10 -1 4.94 1.85
0 -10 1 5.29 0.84
0 10 1 5.76 1.39
0 -10 1 5.56 0.57
0 10 -1 4.22 3.01
-2 8 3 41.23 1.05
2 -8 -3 42.54 1.26
-2 -8 3 37.95 1.56
-2 -8 3 43.17 1.19
-2 8 3 41 1.87
2 8 -3 39.49 2.24
-2 8 3 43.81 1.69
-2 -8 3 42.73 0.86
-2 -8 3 40.39 2.03
2 8 -3 48.45 2.17
1 8 3 87.2 3.25
1 -8 3 88.93 3.02
1 -8 3 82.49 2
-1 8 -3 83.92 2.06
-1 8 -3 89.8 3.32
1 8 3 91.76 2.72
-2 7 4 1.07 0.6
2 7 -4 0.26 0.39
2 7 -4 0.19 0.3
-2 -7 4 0.79 0.29
-2 7 4 0.21 0.45
-2 7 4 0.7 0.8
-2 -7 4 0.42 0.41
-2 7 4 0.56 0.25
2 -7 -4 0.65 0.65
2 1 -6 0.93 0.28
2 -1 -6 0.33 0.33
-2 -1 6 0.13 0.31
-2 1 6 -0.34 0.42
2 -1 -6 0.09 0.19
-2 -1 6 0.23 0.49
-2 1 6 0.34 0.38
1 9 2 9.89 2.09
-1 -9 -2 8.65 1.87
1 9 2 8.61 0.82
1 9 2 9.96 1.49
-1 9 -2 8.93 0.82
1 -9 2 9.56 1.99
1 -9 2 6.93 0.59
-1 9 -2 10.2 1.48
0 -1 6 4.62 1.22
0 1 6 3.24 2.04
0 -1 6 5.06 1.31
0 1 6 4.94 1.08
0 -1 -6 4.6 1.38
0 1 -6 3.51 0.98
3 5 -4 66.98 1.32
3 5 -4 72.16 1.82
-3 -5 4 60.63 1.81
3 -5 -4 66.93 1.99
3 -5 -4 62.81 2.9
-3 -5 4 63.11 2.1
-3 5 4 69 2.05
3 -5 -4 68.01 2.64
-3 5 4 65.88 2.34
-3 5 4 69.99 2.33
-1 3 6 21 2.2
1 -3 -6 17.75 1.6
1 3 -6 19.98 1.2
-1 -3 6 19.94 2.29
-1 -3 6 18.02 1.22
-1 3 6 21.01 1.72
1 -3 -6 18.96 1.53
-4 2 2 111.96 2.75
-4 -2 2 110.98 3.06
-4 -2 2 113.77 2.79
-4 2 2 111.33 2.9
4 2 -2 109.61 3.42
1 -4 5 0.48 0.58
1 4 5 0.54 0.68
1 -4 5 0.48 0.35
1 4 5 0.38 0.3
-4 2 1 527.05 9.59
-4 2 1 533.72 9.57
-4 -2 1 517.38 9.29
-4 -2 1 522.49 9.42
4 2 -1 505.38 8.98
3 7 -1 44.45 1.31
-3 -7 1 46.24 1.59
3 7 -1 46.58 2.38
-3 -7 1 46.14 1.23
3 -7 -1 42.89 1.19
-3 7 1 47.75 1.71
-3 -7 1 46.74 1.85
3 7 -1 47.6 1.41
3 7 -1 42.88 0.96
-3 7 1 47.26 1.4
3 -7 -1 42.27 1.37
-3 -6 -1 268.53 5.51
3 6 1 261.14 4.97
3 -6 1 263.78 4.98
-3 6 -1 285.3 5.69
3 6 1 282.74 5.8
3 6 1 279.1 6.09
3 6 1 266.06 5.28
-3 -6 -1 266.09 5.37
-4 0 3 0.1 0.26
-4 0 3 0.23 0.23
-2 -9 1 34.28 1.52
-2 9 1 39.62 3.05
2 9 -1 35.54 2.47
-2 -9 1 31.58 2.34
2 9 -1 37.35 2.09
2 9 -1 31.06 1.17
-2 -9 1 36.28 1.58
2 9 -1 37.78 2.02
2 -9 -1 36.93 1.78
-2 9 1 36.13 1.49
2 -9 -1 34.69 1.39
-2 9 1 36.56 1.75
-2 2 6 17.18 1.39
-2 2 6 20.51 2.23
2 2 -6 18.42 1.37
-2 -2 6 16.54 1.81
2 -2 -6 15.76 1.33
2 -2 -6 24.38 2.13
-2 2 6 17.19 1.26
-2 -2 6 16.94 3.05
-3 0 -3 131.89 3.68
3 0 3 108.98 3.27
-1 9 3 0.23 0.26
-1 9 3 0.15 0.42
-1 -9 3 0.14 0.19
-1 -9 3 0.01 0.14
1 9 -3 -0.27 0.57
-1 -9 3 0.08 0.16
-1 -9 3 0.14 0.18
-1 9 3 0.35 0.44
0 -9 3 0.74 0.52
0 -9 3 0.12 0.23
0 9 3 1.68 1.03
0 -9 3 1.01 0.35
0 9 -3 1.82 0.52
0 9 3 1.99 0.73
2 4 4 4.35 0.62
2 4 4 3.5 1.17
2 4 4 3.31 1.02
-2 4 -4 3.82 0.97
1 10 0 1.2 1.01
1 10 0 0.73 0.39
1 10 0 0.39 0.21
1 10 0 1.32 0.54
1 -10 0 -0.06 0.36
-1 10 0 1.26 0.48
-1 -10 0 0.2 0.23
-1 10 0 0.86 0.67
1 -10 0 1.26 0.64
0 -2 -6 3.26 0.69
0 2 6 5 1.31
0 2 6 4.21 1.3
0 2 -6 3.47 1.23
0 -2 6 4.69 1.22
3 -3 -5 835.22 14.54
-3 3 5 836.23 14.45
-3 3 5 860.94 15.1
3 -3 -5 786.21 13.65
3 3 -5 805.99 13.07
-3 -3 5 821.38 14.5
-3 -3 5 848 15.12
3 -3 -5 857.25 14.4
4 1 -3 17.45 1.17
-4 1 3 22.87 3.03
-4 -1 3 14.62 2.74
-4 1 3 19.69 1.58
-4 -1 3 22.42 1.56
-1 -10 1 981.31 16.17
-1 10 1 1001.92 16.59
1 10 -1 1088.39 18.52
-1 10 1 1032.42 17.75
1 10 -1 997.59 16.6
1 10 -1 1004.63 16.26
-1 -10 1 984.82 15.9
-1 -10 1 941.74 15.89
1 8 -4 105.79 3.61
-1 8 4 105.47 3.89
1 -8 -4 96.29 3.04
-1 -8 4 99.54 2.38
-1 8 4 105.6 2.6
-1 -8 4 100.43 2.25
-1 8 4 108.15 3.34
0 -6 5 108.03 2.97
0 6 5 111.93 3.07
0 -6 5 104.46 2.33
0 -6 5 103.72 2.54
0 6 5 114.94 3.35
0 -6 -5 104.29 2.78
3 7 -2 6.83 2.38
3 7 -2 3.65 0.96
-3 7 2 6.06 2.33
-3 -7 2 5.08 0.53
3 -7 -2 5.49 0.89
-3 7 2 5.59 1.64
3 -7 -2 5.3 0.76
-3 -7 2 5.2 0.62
3 7 -2 3.72 1.33
3 7 -2 6.55 0.95
-3 -7 2 5.37 1.79
-3 1 -3 143.85 3.91
3 -1 3 151.85 5.44
-3 -1 -3 149.71 3.79
3 1 3 151.9 4.19
-4 0 0 1065.33 17.97
-4 0 0 1061.95 18.02
-2 -9 0 0.65 0.3
2 -9 0 0.12 0.55
2 -9 0 0.17 0.3
-2 9 0 0.39 0.38
2 9 0 0.56 0.41
2 9 0 0.16 0.61
-2 -9 0 0.04 0.21
2 9 0 -0.19 0.21
-2 9 0 -0.28 0.63
-4 1 0 7.8 3.31
-4 -1 0 5.32 2.17
-4 -1 0 6.66 2.12
-4 1 0 7.97 2.8
3 7 0 237.33 4.62
3 7 0 238.4 4.39
-3 -7 0 237.93 4.43
3 -7 0 223.56 4.38
3 7 0 240.22 5.09
-3 -7 0 229.15 4.51
-3 -7 0 229.24 4.51
3 7 0 236.04 5.37
-3 7 0 234.64 4.74
0 8 -4 0.38 0.45
0 8 4 0.52 0.36
0 8 4 1.03 0.77
0 -8 4 0.36 0.77
0 -8 4 0.2 0.29
-4 -3 2 7.89 2.89
4 3 -2 9.15 1.8
-4 -3 2 8.13 2.42
-4 3 2 7.22 3.82
-4 3 2 9.83 1.87
4 -3 -2 7.41 2.61
-4 -2 3 1.29 0.53
4 2 -3 0 0.39
-4 2 3 0.04 0.33
-4 2 3 -0.18 0.78
-4 -2 3 -0.5 1.21
-2 -9 2 79.67 4.11
2 -9 -2 79.72 4.22
2 9 -2 82.87 4.88
2 9 -2 80.72 4.29
-2 -9 2 75.13 3.99
2 9 -2 86.32 4.73
-2 9 2 76.13 4.94
2 -9 -2 77.83 3.97
-2 -9 2 75.69 3.89
-2 9 2 81.85 4.36
-2 9 2 81.32 4.13
1 -7 4 3.73 0.9
1 -7 4 3.31 0.6
1 7 4 7.04 1.85
1 7 4 6.35 1.87
4 3 -1 9.21 2.54
-4 3 1 9.71 3.29
-4 3 1 9.8 1.92
-4 -3 1 8.1 1.88
4 -3 -1 5.49 2.5
-4 -3 1 9.98 2.12
4 3 -1 9.72 1.53
-3 -5 -2 2.02 0.79
-3 5 -2 2.75 0.93
3 5 2 2.81 1.1
3 5 2 2.1 0.74
3 -5 2 1.27 0.79
3 5 2 4.83 1.22
-3 -5 -2 1.9 0.63
3 5 2 2.09 0.99
-3 -2 -3 16.61 1.66
3 2 3 16.16 1.21
3 -2 3 15.08 1.01
-3 2 -3 12.64 1.28
2 8 2 10.37 0.61
2 -8 2 10.8 0.76
2 8 2 12.84 2.19
2 8 2 10.95 2.07
-2 -8 -2 10.39 1.18
2 8 2 10.41 1
-2 8 -2 10.44 0.91
0 10 -2 922.75 12.02
0 -10 2 913.14 11.62
0 10 2 1007.91 14.29
0 10 2 903.76 12.76
0 -10 2 954.98 12.15
0 10 -2 996.76 13.8
0 -10 2 917.26 12.41
0 -10 2 968.86 13.29
2 3 -6 79.8 4.24
2 -3 -6 85.61 4.71
-2 3 6 84.36 4.52
-2 3 6 87.64 4.84
-2 -3 6 79.95 4.37
2 -3 -6 83 4.28
-2 3 6 81.25 4.35
-2 -3 6 81.02 4.13
-4 2 0 138.76 4.01
4 2 0 155.41 3.44
-4 2 0 155.1 3.41
4 2 0 151.98 3.36
2 -6 -5 24.3 2.34
-2 6 5 21.15 1.75
-2 6 5 21.38 1.91
2 6 -5 16.33 1.08
-2 6 5 23.86 1.67
2 6 -5 17.11 1
-2 -6 5 23.91 1.69
0 3 6 321.89 4.87
0 -3 6 313.32 5.17
0 3 6 332.59 5.84
1 10 1 271.73 5.28
-1 10 -1 276.15 5.33
1 -10 1 262.14 3.52
-1 -10 -1 257.2 4.32
-1 10 -1 275.77 5.01
1 -10 1 276.44 4.51
1 10 1 272.27 3.83
-1 -4 6 0.31 0.33
-1 -4 6 0.59 0.64
-1 4 6 0.31 0.33
-1 -4 6 0.01 0.04
1 -4 -6 0.35 0.2
-1 4 6 0.92 0.45
1 -4 -6 0.7 0.24
-1 10 2 710.81 9.76
-1 10 2 736.68 11.29
-1 -10 2 646.48 9.02
-1 -10 2 667.98 8.75
1 10 -2 691.12 9.04
-1 10 2 690.21 8.73
1 10 -2 722.91 10.42
-1 -10 2 677.14 9.06
3 -4 -5 435.83 7.13
3 4 -5 456.48 5.84
3 -4 -5 425.22 6.61
-3 4 5 457.39 7.45
-3 -4 5 434.29 6.9
3 4 -5 454.99 6.11
-3 -4 5 450.53 7.15
1 -5 5 235.19 4.54
1 5 5 265.37 4.83
1 5 5 268.89 4.89
1 -5 5 256.02 4.61
3 7 -3 23.93 1.56
-3 7 3 24.92 3.13
3 -7 -3 22.74 1.5
-3 7 3 25.35 2.13
-3 -7 3 24.71 1.7
3 7 -3 23.77 1.4
-3 -7 3 21.85 2.35
3 7 -3 22.45 1.61
-3 7 3 24.82 2.38
-3 6 4 878.92 11.9
3 -6 -4 835.98 11.45
-3 6 4 805.93 11.44
-3 6 4 878.18 12.3
3 -6 -4 875.47 12.48
-3 -6 4 854.39 11.73
3 6 -4 826.71 11.5
3 6 -4 873.15 11.54
-2 7 -3 51.04 2.92
2 7 3 49.63 2.74
2 -7 3 49.83 2.81
2 7 3 53.24 3.47
2 7 3 46.04 3.87
2 -7 3 48.86 3.19
-4 -3 3 226 4.12
4 3 -3 223.09 3.91
-4 -3 3 234.68 4.27
-4 3 3 238.75 4.37
-4 3 3 239.66 4.45
2 -9 1 137.44 2.79
2 9 1 141.87 2.58
2 9 1 145.55 3.38
2 9 1 134.97 3.4
2 -9 1 133.86 2.26
-2 9 -1 139.83 2.75
-2 9 -1 143.7 5.33
-2 -9 -1 137.47 2.97
2 9 1 144.04 2.99
-3 -3 -3 0.23 0.31
-3 3 -3 0.25 0.44
3 3 3 0.59 0.44
-2 5 -4 1.6 0.81
2 5 4 0.95 0.9
2 5 4 3.79 1.71
2 5 4 1.21 0.44
1 -7 -5 102.22 5.43
-1 -7 5 111.63 2.51
-1 -7 5 109.82 5.51
1 7 -5 114.74 2.78
-1 -7 5 106.13 5.33
-1 7 5 115.09 2.93
-1 7 5 113.03 3.06
-1 7 5 113.42 2.39
4 3 0 0.36 0.59
-4 -3 0 0.19 0.33
4 3 0 0.65 0.49
-4 3 0 0.47 0.41
-4 -3 0 0.1 0.45
-4 3 0 0.75 0.71
-4 4 2 129.52 2.71
-4 -4 2 116 3.38
4 -4 -2 114.71 2.47
4 4 -2 129.27 2.74
-4 -4 2 128.16 2.64
4 4 -2 125.76 3.98
-4 0 4 416.62 6.64
-4 0 4 430.04 6.69
-4 -4 1 29.82 2.1
-4 4 1 36.98 2.36
-4 -4 1 35.84 2.15
4 4 -1 34.86 2.29
-4 4 1 36.05 2.57
4 4 -1 34.99 2.47
4 -4 -1 31.84 2.13
-4 -1 4 35.51 2.24
-4 1 4 35.94 2.22
-4 -1 4 29.42 1.93
-4 1 4 31.06 4.78
-2 8 4 41 2.81
2 8 -4 45.58 2.93
2 8 -4 38.52 2.63
-2 8 4 44.42 2.71
-2 8 4 45.4 3.12
-2 8 4 39.58 2.23
-2 -8 4 39.34 1.98
-2 -8 4 39.78 2.32
-2 -8 4 40.74 2.35
-2 -4 6 50.6 3.74
-2 4 6 59.06 3.45
-2 -4 6 42.58 3.37
2 -4 -6 57.88 3.2
-2 4 6 64.22 3.76
2 4 -6 58.62 3.08
2 -4 -6 60.66 3.31
-2 4 6 52.12 3.12
0 -4 6 16.54 1.24
0 -4 6 14.85 1.14
0 -4 -6 16.18 1.51
0 4 6 18.66 1.84
0 4 6 16.4 1.24
3 7 1 205.95 3.76
3 7 1 190.09 4.39
-3 -7 -1 195.09 3.59
-3 -7 -1 191.73 3.86
3 -7 1 182.2 3.22
-3 7 -1 198.56 4.68
3 7 1 189.44 3.63
3 7 1 204.75 3.93
-4 0 -1 0.45 0.48
2 9 -3 254.24 4.09
-2 9 3 257.31 3.98
-2 -9 3 237.42 3.21
-2 9 3 268.34 4.7
2 9 -3 268.31 4.68
-2 -9 3 246.61 3.97
2 -9 -3 253.34 3.9
-2 9 3 231.7 5.26
-2 -9 3 242.08 3.48
-2 -9 3 242.51 4.14
1 9 3 3.34 1.08
-1 9 -3 3.87 0.59
1 9 3 3.57 1.75
1 -9 3 3.83 1.33
-1 9 -3 4.85 1.7
1 -9 3 2.79 0.53
0 -7 5 165.05 2.97
0 7 5 179.96 4.17
0 -7 -5 157.52 3.64
0 7 5 182.51 4.58
0 -7 5 153.52 3.36
4 1 1 0.91 0.78
-4 1 -1 1.04 0.9
-4 -1 -1 0.79 0.34
-3 -8 1 62.79 3.47
3 8 -1 63.15 3.36
-3 8 1 67.74 4.36
3 8 -1 68.49 3.71
-3 8 1 67.6 3.56
-3 -8 1 65.42 3.48
3 8 -1 65.93 4.15
-3 -8 1 64.99 4.07
3 8 -1 63.74 3.61
3 -8 -1 65.68 3.47
2 0 5 0.74 0.95
-1 -5 6 -0.03 0.11
-1 -5 6 0.37 0.14
-1 -5 6 0.88 0.42
-1 5 6 0.26 0.46
1 -5 -6 0.94 0.45
-1 5 6 1.3 0.65
0 -11 0 -0.18 0.71
0 11 0 0.02 0.55
0 11 0 0.14 0.13
-4 2 4 1.02 1.02
-4 -2 4 0.75 0.65
-4 2 4 0.6 0.54
4 2 -4 0.53 0.36
-4 -2 4 0.56 0.41
3 -6 2 571.04 8.02
3 6 2 642.78 9.47
3 6 2 592.94 8.41
3 6 2 637.34 9.77
-3 6 -2 619.49 9.23
2 1 5 23.29 1.81
2 -1 5 21.88 2.15
-4 -4 3 31.65 2.05
4 4 -3 26.04 2.07
-4 -4 3 30.03 2.94
-4 4 3 31.49 4.59
4 -4 -3 27.47 1.95
-4 4 3 30.31 2.51
-3 8 2 99.25 5.32
3 8 -2 79.58 4.09
-3 -8 2 90.18 4.68
3 8 -2 92.73 4.71
-3 -8 2 92.76 4.74
3 8 -2 88.4 5.49
-3 8 2 94.06 5.74
3 8 -2 96.36 5.12
3 -8 -2 88.69 4.66
-3 8 2 98.62 5.06
-3 -8 2 96.58 5.04
-3 4 -3 45.63 2.75
3 4 3 47.4 2.83
3 0 -6 0.3 0.33
-3 0 6 -0.01 0.36
3 0 -6 0.26 0.2
1 10 2 36.01 1.99
-1 10 -2 37.18 2.07
1 10 2 39.14 2.53
1 -10 2 38.31 2.15
-1 10 -2 37.42 2.73
1 10 2 38.66 2.6
-3 5 5 173.71 3.99
-3 5 5 181.87 3.78
-3 5 5 181.01 3.63
-3 -5 5 156.9 3.26
3 5 -5 172.87 2.78
3 -5 -5 181.52 5.93
3 -5 -5 159.57 3.09
-3 -5 5 165.76 3.25
1 0 6 1.04 0.69
4 2 1 19.68 1.09
-4 -2 -1 16.74 0.96
-4 2 -1 19.27 1.09
3 -1 -6 451.05 6.35
-3 1 6 456.77 7.21
3 -1 -6 461.98 6.67
3 1 -6 448.92 6.04
-3 -1 6 430.24 6.91
3 1 -6 453.68 6.28
-4 -4 0 125.19 2.85
-4 4 0 124.04 2.98
4 4 0 114.45 2.83
-4 4 0 118.74 2.67
-4 -4 0 121.5 3.18
4 4 0 122.47 3.3
0 -11 1 1624.03 20.21
0 11 1 1711.48 9.61
0 11 -1 1626.54 20.27
0 -11 1 1609.83 19.74
1 1 6 122.55 3.22
1 1 6 119.03 3.63
1 -1 6 125.83 3.4
-1 9 4 62.59 3.56
-1 9 4 61.94 4.99
-1 -9 4 58.3 3.17
-1 -9 4 63.97 3.44
-1 -9 4 58.97 3.21
1 9 -4 65.91 3.97
-1 9 4 62.85 3.9
-3 -8 0 57.18 3.53
3 8 0 60.62 3.43
-3 -8 0 54.55 3.1
3 8 0 57.02 3.51
-3 8 0 59.66 3.94
-3 -8 0 57.62 3.09
3 -8 0 57.08 3.01
3 8 0 57.58 4.1
3 8 0 55.94 3.05
-2 -7 5 218.65 3.37
-2 7 5 245.84 4.58
2 -7 -5 243.52 4.8
2 7 -5 229.45 3.82
-2 7 5 232.24 5.62
-2 7 5 235.21 4.49
2 7 -5 219.13 4
-2 -7 5 233.24 4.19
2 2 5 107.26 5.9
2 -2 5 94.91 5.31
-2 -10 1 61.77 3.33
-2 -10 1 62.49 3.28
-2 10 1 59.27 3.72
2 10 -1 62.26 3.59
2 10 -1 65.78 3.72
2 -10 -1 62.11 3.43
-2 10 1 65.67 3.91
2 10 -1 70.65 3.79
2 -10 -1 61.67 3.15
1 -6 5 18.47 0.96
1 -6 5 23.68 1.67
1 6 5 23.38 2.64
1 6 5 22.43 2.01
1 8 4 412.22 6.66
1 -8 4 359.44 5.54
1 8 4 398.18 6.83
1 -8 4 363.2 5.77
-1 -10 3 85.07 4.39
-1 -10 3 79.87 3.99
-1 10 3 90.36 5.83
-1 10 3 87.01 4.87
-1 -10 3 79.1 4.18
1 10 -3 88.76 5.16
-1 -10 3 82.8 4.25
-1 10 3 91.57 5.38
-1 10 3 86.84 4.5
0 10 3 8.61 1.44
0 10 -3 9.76 2.89
0 10 3 9.17 1.84
0 -10 3 10.74 2.16
0 -10 3 9.45 1.45
0 -10 3 9.18 0.82
-4 5 2 88.06 4.96
4 -5 -2 85.44 4.59
4 5 -2 88.51 5.06
4 5 -2 83.04 5.15
-4 5 2 90.91 4.82
-4 -5 2 85.78 5.12
-4 -5 2 90.11 4.91
4 -3 -4 0.79 0.71
-4 -3 4 1.15 0.7
-4 3 4 1.27 0.76
-4 -3 4 0.88 0.43
-4 3 4 2.37 0.76
4 3 -4 0.46 0.27
-4 -5 1 164.43 3.48
-4 5 1 167.12 7.8
4 5 -1 171.07 3.61
4 -5 -1 153.36 2.96
-4 -5 1 156.18 3.27
-4 5 1 169.87 3.4
4 5 -1 162.96 3.64
3 -2 -6 5.31 1.16
-3 2 6 2.95 1.72
3 2 -6 4.09 0.81
3 -2 -6 4.19 0.83
3 2 -6 5.51 0.87
-3 -2 6 5.1 2.33
0 9 -4 127.28 2.78
0 -9 4 122.99 2.78
0 9 4 137.17 3.85
0 -9 4 121.89 2.41
0 -9 4 116.42 2.32
0 9 4 140.66 4.69
2 6 4 11.27 1.23
-2 6 -4 10.22 1.59
2 6 4 9.37 1.84
2 6 4 11.97 1.11
2 -10 0 535.78 7.06
2 10 0 537.97 7.45
2 10 0 552.82 7.08
-2 10 0 563.8 8.84
2 -10 0 541.6 7.78
-2 10 0 570.69 8.3
-2 -10 0 529.67 7.48
2 10 0 569.61 8.6
1 -2 6 1198.28 16.05
1 2 6 1173.87 15.89
1 2 6 1144.8 15.03
2 -5 -6 444.99 6.83
-2 5 6 442.97 7.65
-2 5 6 439.48 6.67
2 5 -6 427.34 5.41
-2 5 6 455.96 7.07
-2 -5 6 421.3 6.69
1 11 0 8.55 2.37
-1 11 0 6.51 0.76
-1 -11 0 7.3 0.95
1 11 0 7.81 1.09
1 11 0 7.51 0.82
1 11 0 6.87 0.7
1 -11 0 7.76 0.83
-1 11 0 6.77 2.05
0 5 6 42.83 2.91
0 -5 6 41.33 2.34
0 5 6 44.79 2.66
0 -5 -6 36.3 2.38
0 -5 6 41.42 2.78
-3 7 4 218.07 3.79
3 -7 -4 212.71 3.88
-3 -7 4 224.08 3.98
-3 7 4 218.84 4.88
-3 -7 4 206.73 3.35
-3 7 4 222.62 4.61
3 7 -4 226.83 3.75
-1 -11 1 37.56 2.39
-1 11 1 47.86 2.63
-1 -11 1 47.08 2.47
1 11 -1 49.9 3.37
-1 11 1 52.78 3.86
1 11 -1 46.1 2.55
2 9 2 59.26 10.57
-2 9 -2 60.36 5
2 -9 2 58.08 3.18
2 9 2 61.55 4.56
2 9 2 65.72 3.74
2 9 2 58.77 3.45
4 3 1 21.94 1.39
-4 -3 -1 18.16 1.5
-4 3 -1 17.12 1.16
2 10 -2 144.46 2.59
2 -10 -2 137.21 2.3
-2 -10 2 136.97 2.49
-2 10 2 143.62 3.04
-2 -10 2 132.56 2.35
-2 10 2 137.79 4.27
2 10 -2 152.3 3.65
-2 -10 2 128.89 2.93
-2 10 2 142.03 2.3
2 10 -2 136.97 3.31
3 8 -3 328.83 5.25
3 8 -3 318.21 5.1
-3 -8 3 312.28 4.55
-3 8 3 333.57 5.91
-3 -8 3 321.61 5.1
-3 8 3 325.54 5.17
3 8 -3 325.62 4.42
3 -8 -3 320.49 4.89
2 3 5 28.04 2.73
2 -3 5 25.61 2.39
2 3 5 30.89 2.26
2 8 3 106.92 5.52
-2 8 -3 117.58 2.9
2 -8 3 115.72 2.58
2 8 3 120.13 3.51
2 8 3 123.63 4.2
2 8 3 120.26 2.84
-1 0 7 1.72 0.55
1 0 -7 2.69 0.83
-1 0 7 1.85 0.63
-1 -8 5 120.26 2.37
-1 8 5 126.92 2.62
-1 8 5 133.95 4.6
1 8 -5 123.95 2.53
-1 8 5 127.51 3.47
-1 -8 5 123.4 2.66
-4 5 3 209.56 4.24
-4 -5 3 203.99 3.87
-4 5 3 207.44 3.8
4 5 -3 203.12 3.49
-4 -5 3 206.35 4.21
4 5 -3 197.57 3.91
3 5 3 78.56 4.98
3 5 3 75.48 4.49
-3 5 -3 67.28 3.75
-3 3 6 0.2 0.47
3 3 -6 0.13 0.11
-3 3 6 0.17 0.5
3 -3 -6 0.95 0.45
3 -3 -6 0.14 0.22
3 3 -6 0.03 0.13
-3 -3 6 0.51 0.55
1 1 -7 5.48 0.86
-1 -1 7 6.39 1.69
-1 -1 7 5.26 0.86
-1 1 7 7.71 1.53
-1 1 7 5.96 1.01
1 -1 -7 5.36 1.32
-1 6 6 63.73 3.53
1 -6 -6 66.05 3.92
-1 -6 6 67.36 3.76
-1 -6 6 61.77 3.14
-1 6 6 72.08 4.1
-1 -6 6 63.36 3.45
1 3 6 52.34 3.16
1 -3 6 47.11 3.22
1 3 6 47.63 3.04
0 -11 2 23.08 1.35
0 -11 2 21.48 1.87
0 11 2 18.81 1.41
0 -11 2 22.76 1.28
0 11 2 23.75 1.46
0 11 2 24.12 2.01
0 11 -2 17.03 6.54
0 11 2 21.87 0.56
4 5 0 38.17 2.69
-4 -5 0 42.95 2.58
-4 5 0 42.46 2.97
-4 5 0 41.21 2.47
-4 -5 0 40.1 2.85
4 5 0 43.83 2.79
-1 -11 -1 298.84 5.29
1 -11 1 312.4 4.8
-1 11 -1 323.96 4.99
1 -11 1 305 4.04
1 11 1 321.34 4.48
-1 11 -1 334.57 9.15
4 -4 -4 8.82 0.78
-4 -4 4 7.88 1.3
-4 4 4 10.3 3.36
-4 4 4 9.79 2.89
-4 -4 4 9.54 1.3
-3 0 -4 0.29 0.44
3 0 4 0.45 0.74
4 0 -5 -0.01 0.35
-4 0 5 0.23 0.37
-4 0 5 -0.39 0.65
-3 6 5 7.13 2.28
-3 -6 5 4.98 2.06
3 -6 -5 6.58 1.41
-3 6 5 6.82 1.51
3 -6 -5 5.99 1.74
3 6 -5 7.15 1.32
-3 6 5 8.04 2.33
-3 -6 5 7.16 2.38
3 8 1 285.07 4.7
3 -8 1 284.9 4.51
-3 -8 -1 284.36 5.05
3 8 1 280.96 4.3
-3 8 -1 310.26 5.42
3 8 1 304.6 5.05
3 8 1 300.84 6.02
2 -10 1 412.86 7.17
-2 -10 -1 412.44 6.53
2 10 1 428.6 6.05
2 10 1 467.7 7.1
2 -10 1 429.57 5.9
2 10 1 443.96 7.33
-2 10 -1 464.43 7.64
-2 10 -1 440.55 7.22
2 10 1 430.03 5.84
-3 -1 -4 74.11 4.21
-3 1 -4 85.71 4.76
3 -1 4 89.34 5.07
3 1 4 87.69 4.97
3 7 2 24.08 1.89
-3 7 -2 21.77 1.18
3 7 2 24.58 1.91
3 7 2 21.52 0.94
3 -7 2 18.01 6.21
-1 11 2 443.16 7.37
-1 11 2 419.08 5.31
-1 -11 2 393.69 6.55
-1 -11 2 405.24 5.55
-1 11 2 419.58 6.6
1 11 -2 436.08 7.04
-1 -2 7 16.04 1.89
1 -2 -7 14.75 2.41
-1 2 7 17.26 1.74
-1 -2 7 17.35 3.13
1 2 -7 16.14 1.55
-1 -2 7 15.44 0.59
-1 2 7 16.07 1.63
4 -1 -5 93.25 4.94
4 -1 -5 98.15 5.81
-4 1 5 103.33 7.86
-4 1 5 96.92 8.41
-4 -1 5 85.03 4.74
-4 -1 5 92.26 5.18
4 1 -5 91.21 4.76
-2 0 7 0.37 0.37
-2 0 7 0.1 0.42
2 0 -7 0.14 0.23
2 0 -7 -0.01 0.06
0 -8 5 363.07 5.66
0 -8 5 363.91 5.53
0 8 5 373.89 6.84
-2 -9 4 200.22 3.39
-2 9 4 219.43 5.02
-2 9 4 215.69 4.3
-2 -9 4 197.52 2.73
-2 -9 4 207.91 3.73
2 9 -4 205.26 3.59
-2 9 4 212.33 3.54
-4 4 -1 857.3 12.19
-4 -4 -1 842.11 12.19
4 4 1 854.36 12.27
-2 -1 7 68.34 3.65
2 -1 -7 69.82 4.18
2 1 -7 67.28 3.86
2 -1 -7 70.72 3.67
-2 1 7 69.19 3.85
-2 -1 7 69.74 3.94
-2 1 7 73.41 4.71
-2 1 7 72.19 3.92
2 -4 5 13.44 2.56
2 4 5 10.04 1.78
2 4 5 12.6 2.4
4 6 -2 1.73 0.64
4 -6 -2 0.9 0.45
-4 6 2 1.04 0.61
4 6 -2 2.32 1.51
4 6 -2 0.5 0.33
-4 -6 2 -0.44 0.65
-4 6 2 2.02 0.93
-4 -6 2 1.83 0.81
4 0 2 17.52 1.78
-4 0 -2 14.47 1.35
3 2 4 41.33 2.61
-3 2 -4 43.74 2.77
3 -2 4 40.78 3.17
4 6 -1 742.93 10.43
-4 6 1 793.81 13.21
-4 6 1 780.06 10.87
4 -6 -1 746.16 10.86
-4 -6 1 771.96 10.92
4 6 -1 823.27 11.55
-4 -6 1 774.47 10.55
4 6 -1 799.71 10.89
-3 -9 1 7.8 1.76
-3 9 1 8.89 0.69
-3 9 1 8.74 0.9
-3 9 1 8.81 1.21
3 9 -1 8.04 0.72
-3 -9 1 8.91 1.28
-3 -9 1 8.13 0.86
3 9 -1 8.93 1.55
3 9 -1 8.93 1.38
3 -9 -1 7.2 0.66
3 9 -1 10.9 2.92
4 2 -5 440.29 6.22
4 -2 -5 454.77 6.85
-4 -2 5 468.38 7.31
-4 2 5 473.44 7.34
-4 2 5 479.56 7.65
-4 -2 5 459.66 7.21
4 -2 -5 454.36 6.95
4 1 2 15.79 1.07
-4 -1 -2 16.51 1.03
-4 1 -2 18.24 1.5
1 7 5 84.56 5.31
1 7 5 84.17 4.71
1 -7 5 74.24 4.08
1 -7 5 78.93 4.23
2 -6 -6 83.42 4.41
-2 6 6 92.11 5.04
2 6 -6 86.3 4.42
-2 6 6 86.81 4.81
-2 6 6 88.44 5.24
-2 -6 6 92.97 5
-3 4 6 3.26 1.43
3 4 -6 3.43 0.79
-3 4 6 2.94 1.03
3 4 -6 3.91 0.65
-3 -4 6 3.56 1.22
-3 4 6 4.45 1.37
3 -4 -6 3.65 1.19
0 6 6 680.53 9.69
0 -6 6 646.67 8.93
0 -6 6 614.87 8.49
0 -6 -6 632.94 8.94
-2 10 3 22.23 1.3
-2 -10 3 24.21 1.99
2 10 -3 21.01 1.78
2 10 -3 27.92 3.11
-2 -10 3 22.46 2.3
-2 10 3 25.71 8.96
-2 -10 3 20.95 0.35
-2 -10 3 21.93 0.41
-2 -10 3 22.39 1.65
-2 10 3 25.44 2.35
1 4 6 108.09 5.94
1 4 6 110.36 6.09
1 -4 6 113.68 3.12
2 -2 -7 114.65 3.07
-2 2 7 114.43 2.39
-2 -2 7 115.21 2.61
-2 2 7 115.92 2.89
-2 -2 7 117.75 2.98
2 -2 -7 115.08 2.32
-2 2 7 119.13 3.24
2 2 -7 110.53 5.62
1 -10 3 7.09 1.09
-1 10 -3 7.12 1.42
1 10 3 9.34 1.39
1 10 3 8.48 1.05
-1 10 -3 8.14 1.99
-3 9 2 176.8 4.26
3 9 -2 198.04 4.31
-3 -9 2 184.38 2.81
3 9 -2 174.55 4.25
-3 9 2 180.17 3.07
-3 9 2 184.62 5.93
-3 -9 2 182.17 3.32
3 -9 -2 178.69 3.06
3 9 -2 195.49 3.28
-3 -9 2 179.62 3.06
2 8 -5 4.99 0.7
-2 8 5 9.12 3.51
-2 -8 5 6.61 1.12
-2 8 5 8.21 1.91
-2 -8 5 7.98 1.61
2 8 -5 7.58 1.75
-2 8 5 8.39 2.08
2 7 4 0.27 0.77
2 -7 4 0.28 0.29
2 7 4 0.59 0.54
2 7 4 0.12 0.25
1 3 -7 17.54 1.22
1 -3 -7 19.35 1.37
-1 3 7 20.75 2.54
-1 -3 7 19.48 1.27
-1 3 7 19.31 2.11
-1 -3 7 17.73 1.95
-1 -3 7 16.3 0.34
0 0 7 0.29 0.27
0 0 7 0.78 0.65
0 0 -7 0.06 0.36
0 -1 7 247.99 4.11
0 1 7 254.1 3.97
0 1 7 259.65 4.88
0 -1 7 258.09 5.07
0 1 -7 239.45 5.04
-4 -2 -2 69.25 4.05
-4 2 -2 68.67 3.97
4 2 2 69.46 4
-3 -9 0 0.99 0.43
-3 -9 0 1.25 0.46
3 -9 0 1.71 0.65
3 9 0 1.19 0.48
3 9 0 0.6 0.35
-3 9 0 1 1.37
3 9 0 2.71 0.93
3 9 0 1.91 0.82
-4 -5 4 20.18 1.17
-4 -5 4 19.77 1
-4 5 4 22.01 2.76
4 5 -4 22.37 1.47
-4 5 4 21.65 1.79
4 -6 -3 25.29 1.61
-4 6 3 26.62 2.33
-4 6 3 27.31 2.08
-4 -6 3 27.7 2.43
4 6 -3 26.58 1.74
-4 -6 3 24.98 1.57
4 6 -3 27.66 2.38
4 6 -3 26.45 3.72
-3 3 -4 23.1 1.73
3 -3 4 23.99 1.81
3 3 4 27.06 1.96
1 9 4 99.65 5.88
1 -9 4 91.79 5.38
1 -9 4 90.85 4.84
1 9 4 100.13 5.52
3 6 3 50.1 3.28
3 6 3 39.1 2.54
3 6 3 46.69 3.04
-3 6 -3 42.1 2.65
-4 -3 5 0.81 0.77
-4 -3 5 1.04 0.63
-4 3 5 1.17 1.26
-4 3 5 0.47 0.78
4 3 -5 0.84 0.39
4 -3 -5 2.07 0.45
4 -3 -5 0.27 0.37
-3 -8 4 10.2 1.24
3 -8 -4 10.21 0.78
-3 8 4 10.8 1.89
-3 8 4 10.92 1
3 8 -4 11.9 1.25
-3 -8 4 11.53 1.48
-3 8 4 10.85 1.52
-1 10 4 68.42 4.11
-1 -10 4 64.65 3.43
-1 10 4 70.25 3.74
1 10 -4 72.23 4.47
-1 10 4 73.26 5.25
-1 -10 4 65.52 3.46
-1 -10 4 64.52 3.48
-1 -10 4 74.58 4.13
4 6 0 185.5 5.16
-4 -6 0 183.19 3.68
4 6 0 180.52 3.56
4 6 0 194.11 5.37
-4 6 0 186.32 3.94
-4 6 0 191.36 3.62
-4 -6 0 191.46 4.17
-1 11 -2 854.38 12.43
1 11 2 825.17 10.72
1 -11 2 809.69 10.77
-1 11 -2 824.9 11.11
0 2 7 353.3 5.31
0 2 7 377.62 6.57
0 -2 7 356.89 5.68
0 2 -7 344.74 6.14
0 12 0 214.96 4.61
0 12 0 197.18 3.2
-2 3 7 72.66 4.19
-2 -3 7 69.28 4.01
2 -3 -7 70.15 3.98
-2 3 7 69.25 3.89
-2 3 7 70.97 4.01
-2 -3 7 69.65 4.9
2 3 -7 67.97 3.61
-4 5 -1 5.57 2.29
-4 -5 -1 5.16 1.7
4 5 1 7.9 2.59
4 5 1 2.81 1.1
-1 7 6 76.01 4.37
-1 -7 6 71.49 3.67
-1 7 6 83.28 4.61
-1 -7 6 74.37 4.04
-1 -7 6 74.3 4.16
-1 7 6 78.84 4.34
1 -7 -6 74.27 4.03
0 10 4 81.96 4.7
0 10 4 80.27 4.87
0 -10 4 76.34 4.47
0 10 -4 67.78 3.79
0 -10 4 69.42 3.69
0 -10 4 73.33 3.89
2 -5 5 107.44 6.02
2 5 5 102.47 6
2 5 5 92.78 5.32
-4 3 -2 3.64 1.58
-4 -3 -2 4.22 1.35
4 3 2 5.3 1.7
2 11 -1 26.39 2.49
-2 -11 1 23.51 1.9
-2 11 1 23.49 1.65
2 -11 -1 23.7 1.37
2 11 -1 26.06 3.29
2 -11 -1 23.52 1.66
-2 11 1 21.31 1.7
2 11 -1 24.63 2.28
-2 -11 1 23.86 1.7
-1 11 3 113.58 5.08
1 11 -3 111.01 3.59
-1 -11 3 105.21 5.19
-1 11 3 115.47 2.68
-1 11 3 109.74 5.56
-1 11 3 124.54 4.4
-1 -11 3 100.33 5.25
-1 -11 3 108.94 5.54
-1 -11 3 107.47 5.48
0 -11 3 4.62 1.24
0 11 3 5.85 2.11
0 11 -3 2.41 1.37
0 -11 3 4.81 1.13
0 -11 3 5.36 1.63
0 11 3 6.73 2.25
-1 -4 7 122.1 3.02
1 4 -7 112.49 2.76
-1 4 7 117.57 2.58
1 -4 -7 114.4 2.98
-1 -4 7 117.53 2.38
-1 4 7 127.46 3.33
0 12 -1 51.12 4.13
0 -12 1 47.91 3.18
0 -12 1 50.2 2.47
0 12 1 50.22 2.97
0 12 1 47.62 3.69
0 12 1 42.29 3.33
0 12 -1 47.62 2.69
3 -9 -3 29.13 1.74
3 9 -3 20.1 1.39
-3 9 3 26.98 1.67
-3 -9 3 26.37 1.5
-3 -9 3 27.9 1.75
-3 9 3 28.05 3.34
-3 9 3 24.85 3.02
-3 -9 3 28.42 1.78
3 9 -3 28.96 2.1
3 9 -3 29.59 1.82
-3 7 5 402.89 7.22
3 -7 -5 371.88 5.96
-3 7 5 384.47 7.17
-3 -7 5 380.61 6.2
-3 -7 5 379.34 5.79
3 7 -5 397.63 5.67
-3 7 5 396.11 6.17
2 9 3 437.04 6.42
-2 9 -3 466.02 7.75
2 9 3 436.18 6.72
2 9 3 476.5 7.68
2 9 3 479.25 7.51
2 10 2 799.2 11.41
2 10 2 811.65 10.92
2 -10 2 795.51 10.56
2 -10 2 835.44 11.78
-2 10 -2 856.66 12.02
2 10 2 850.32 11.3
2 10 2 853.59 12.28
-3 -5 6 36.76 2.68
3 5 -6 36.82 1.85
3 5 -6 40.17 2.17
-3 5 6 35.42 2.25
3 -5 -6 35.19 2.79
-3 5 6 36.54 2.35
-3 5 6 38.62 2.47
-1 9 5 83.84 4.47
-1 -9 5 80.61 4.33
-1 9 5 83.12 4.95
-1 -9 5 86.59 4.59
1 9 -5 85.4 4.77
-1 9 5 81.6 5.31
-1 -9 5 76.14 4.13
-2 11 0 17.06 1.18
2 -11 0 15.02 0.85
-2 -11 0 15.75 1.56
2 -11 0 17.73 0.7
2 11 0 17.17 2.61
-2 -11 0 17.57 1.02
2 11 0 20.92 2.25
-2 11 0 17.54 2.13
2 11 0 17.6 0.79
1 5 6 2.3 0.86
1 5 6 2.33 0.79
1 -5 6 3.1 0.96
0 -3 7 35.6 2.32
0 3 7 35.27 2.2
0 3 7 35.15 2.35
0 3 -7 31.09 2.23
3 4 4 54.22 3.32
-3 4 -4 52 3.04
3 8 2 -0.03 0.35
-3 8 -2 -0.3 0.59
3 8 2 0.73 0.78
3 8 2 0.52 0.34
3 -8 2 0.39 0.42
-4 -4 5 46.77 2.8
-4 4 5 42.19 2.51
4 -4 -5 43.3 3.1
-4 -4 5 46.52 2.98
-4 4 5 43.32 5.72
-4 7 2 322.82 6.71
4 7 -2 321.7 6.42
-4 -7 2 309.13 6.81
4 7 -2 306.58 7.4
-4 7 2 326.71 7.22
-4 -7 2 334.09 7.13
4 -7 -2 299.18 6.35
4 7 -2 298.26 6.07
-2 11 2 6.37 2.13
2 -11 -2 5.1 0.72
2 11 -2 4.5 1.03
-2 11 2 4.81 0.75
-2 11 2 6.25 2.44
-2 -11 2 5.51 0.96
2 11 -2 5.98 1.34
-2 -11 2 3.93 1
2 11 -2 7.29 2.23
-4 -7 1 534.76 10.37
4 7 -1 557.16 10.86
-4 7 1 542.8 10.7
4 7 -1 551.47 11.01
4 -7 -1 509.6 9.9
-4 -7 1 552.04 10.85
-4 7 1 538.34 11.28
4 7 -1 499.65 11.79
1 -12 0 32.84 2
1 12 0 30.93 1.83
1 12 0 34.11 2.97
1 12 0 30.76 1.51
1 12 0 33.51 3.59
-1 -12 0 33.33 1.99
-1 12 0 32.7 1.97
-1 12 0 32.3 2.24
-2 -4 7 228.74 5.4
2 4 -7 219.4 4.58
-2 -4 7 213.14 4.33
-2 4 7 212.02 5.28
-2 4 7 221.89 6.04
2 -4 -7 222.42 5.25
-2 4 7 227.62 4.91
3 9 1 24.77 1.55
3 9 1 27.7 2.74
-3 9 -1 26.82 9.04
3 9 1 24.21 2.06
3 9 1 27.51 1.95
3 -9 1 26.35 1.55
1 12 -1 57.28 2.82
-1 12 1 62.19 3.54
1 12 -1 61.08 4.06
-1 -12 1 55.55 3
-1 12 1 59.01 4
-1 -12 1 56.41 2.77
-2 7 6 11.43 1.99
-2 7 6 10.72 2.93
-2 7 6 11.3 1.64
-2 -7 6 10.39 1.27
2 -7 -6 9.46 1.58
-2 -7 6 11.92 2.64
2 7 -6 6.1 0.98
0 -7 6 60.5 3.48
0 -7 6 60.06 3.33
0 7 6 70.44 2.4
0 -7 6 61.5 3.19
0 7 6 65.64 3.85
0 9 5 54.74 3.6
0 9 5 63.27 4.68
0 -9 5 53.85 2.91
0 9 -5 54.45 3.86
0 -9 5 51.38 2.93
-3 0 7 178.54 4.82
-3 0 7 175 4.02
3 0 -7 185.24 4.07
3 0 -7 184.44 3.67
-4 -6 4 76.82 3.4
4 6 -4 75.61 2.36
-4 6 4 80.07 2.79
-4 -6 4 75.12 2.37
-4 6 4 79.73 2.35
4 6 -4 80.09 2.01
-4 -4 -2 104.18 2.93
4 4 2 100.02 3.5
-4 4 -2 97.39 3.01
1 -8 5 0.41 0.23
1 8 5 1.01 0.61
1 8 5 1.62 0.8
1 -8 5 0.07 0.73
-3 1 7 6.24 2.22
-3 1 7 6.45 3.43
3 -1 -7 5.6 1.09
3 1 -7 5.45 0.78
3 -1 -7 7.48 1.06
-3 -1 7 6.03 2.02
-3 -1 7 4.54 2.41
3 1 -7 7.34 1.42
-2 10 4 0.69 0.28
-2 -10 4 0.64 0.36
2 10 -4 0.25 0.29
-2 10 4 0.33 0.91
-2 10 4 0.18 0.51
2 10 -4 0.27 0.37
-2 -10 4 0.53 0.19
-2 -10 4 0.17 0.36
-2 -10 4 0.27 0.16
2 8 4 38.58 2.78
-2 8 -4 39.13 2.58
2 8 4 33.91 3.63
2 8 4 37.41 2.64
4 7 -3 34.31 1.92
-4 7 3 31.73 2.11
4 7 -3 29.92 2.95
-4 -7 3 33.11 2.33
4 7 -3 31.92 2.28
-4 -7 3 33.68 3.29
-4 7 3 37.8 2.21
4 -7 -3 33.12 1.92
2 -11 1 10.8 1.26
2 11 1 11.29 0.92
-2 11 -1 10.55 4.02
2 -11 1 11.3 0.83
2 11 1 14.61 3.15
2 11 1 13.47 1.5
-2 11 -1 11.54 1.26
2 11 1 11.64 0.62
0 12 -2 33.17 3.44
0 -12 2 31.98 1.67
0 12 2 38.32 2.45
0 12 2 34.8 2.65
0 -12 2 32.05 1.94
0 12 2 34.07 1.79
0 12 -2 34.13 1.86
0 -12 2 34.06 1.75
0 12 2 39.86 2.54
-4 -6 -1 90.9 2.78
4 6 1 81.82 3.94
-4 6 -1 98.91 3.61
4 6 1 83.61 2.49
4 6 1 91.56 3.49
-3 7 -3 227.75 5.61
3 7 3 237.17 7.59
3 7 3 222.18 5.28
1 -5 -7 96.45 3.2
-1 5 7 99.92 3.22
-1 -5 7 103.73 3.04
-1 -5 7 88.23 1.82
-1 5 7 104.44 3.39
-1 -5 7 96.63 2.51
1 12 1 42.23 4.12
1 12 1 40.8 2.16
1 -12 1 38.23 1.84
-1 12 -1 36.05 2.64
1 -12 1 38.56 1.9
1 12 1 42.16 2.9
1 12 1 40.35 2.08
1 -12 1 40.09 2.26
-1 12 -1 37.85 2.46
0 4 7 8.77 2.37
0 -4 7 8.49 1.85
0 4 7 8.95 2.58
4 0 -6 35.37 2.5
-4 0 6 15.46 8.64
4 0 -6 26.44 3.67
-4 0 6 29.31 10.22
-3 10 1 20.82 2.83
3 10 -1 18.28 1.22
-3 -10 1 19.47 1.46
-3 10 1 18.81 1.75
3 10 -1 19.2 1.94
3 10 -1 22.58 2.18
3 10 -1 21.58 1.61
-3 10 1 22.58 2.32
3 -10 -1 21 1.25
-3 -10 1 23.65 1.73
-4 -7 0 0.9 0.47
4 -7 0 0.56 0.41
4 7 0 1.52 0.81
-4 -7 0 0.99 0.46
4 7 0 0.35 0.51
4 7 0 0.04 0.27
-4 7 0 0.52 0.49
-2 -9 5 31.96 1.53
-2 -9 5 28.83 1.39
-2 9 5 30.33 2.36
-2 9 5 31.85 2.3
-2 -9 5 36.35 3.55
-2 9 5 30.93 1.82
-2 9 5 31.22 2.91
2 9 -5 34.61 2.72
-2 -9 5 27.26 1.75
2 0 6 51.46 5.42
2 6 5 21.25 1.68
2 6 5 24.39 3.23
-3 -2 7 34.97 4.68
3 2 -7 33.92 1.67
3 -2 -7 34.35 2.12
-3 2 7 35.5 2.87
-3 2 7 34.45 2.87
3 2 -7 34.59 2.33
3 -2 -7 35.63 2.74
-5 0 2 -0.05 0.53
-5 0 2 0.12 0.75
-4 -1 6 266.78 6.15
4 -1 -6 247.19 5.39
4 -1 -6 256.87 5.62
-4 1 6 263.85 6
-4 -1 6 261.99 6
-4 1 6 261.26 6.1
4 1 -6 248.47 5.2
1 12 -2 0.73 0.63
-1 12 2 -0.49 0.83
-1 12 2 0.42 0.51
-1 -12 2 0.38 0.27
-1 -12 2 0.23 0.25
2 1 6 2042.4 10.09
2 -1 6 1998.83 36.81
-5 -1 2 13.34 2.52
-5 1 2 13 2.1
-5 -1 2 14.96 2.47
-5 1 2 16.81 3.55
3 5 4 84.61 3.41
-3 5 -4 82.64 2.68
3 5 4 86.55 3.22
-3 -10 2 246.63 5.24
3 10 -2 239.4 6.85
3 10 -2 251.02 5.79
3 10 -2 264.44 5.33
-3 10 2 251.74 5.67
-3 10 2 247.75 5.23
-3 -10 2 240.96 5.1
-3 -10 2 247.83 4.83
3 -10 -2 247.61 5.07
-3 10 2 245.87 8.03
-3 -6 6 65.25 3.62
3 -6 -6 64.7 4.21
-3 6 6 60 3.38
-3 6 6 69.93 4.1
3 6 -6 61.16 3.08
-3 6 6 61.21 4.28
-4 5 5 194.19 5.44
-4 -5 5 195.93 4.71
-4 -5 5 183.03 4.26
4 5 -5 194.15 4.26
-4 5 5 193.62 4.55
1 6 6 5.08 1.41
1 6 6 4.16 1.16
1 -6 6 5.03 1.46
1 -6 6 2.65 1.19
-5 0 1 1.19 1.22
-5 0 1 0.07 0.43
-1 8 6 1.85 0.62
-1 -8 6 2.84 0.66
-1 -8 6 2.91 1.65
-1 8 6 4.02 1.31
-1 8 6 3.37 1.22
-1 -8 6 2.45 0.45
1 8 -6 2.41 0.88
-5 0 3 4.43 1.72
-5 0 3 3.7 1.48
-2 11 3 7.92 2.89
-2 11 3 6.16 0.66
2 11 -3 8.15 2.1
-2 11 3 7.19 2.53
-2 -11 3 5.77 0.66
-2 -11 3 5.79 0.86
2 11 -3 5.12 1.01
-3 -9 4 48.74 2.72
-3 9 4 46.86 3.88
-3 -9 4 43.14 2.52
3 -9 -4 43.36 2.37
-3 9 4 48.99 3.33
-3 9 4 46.02 2.51
3 9 -4 47.54 3.01
-2 5 7 248.25 6.62
-2 5 7 241.86 5.98
-2 -5 7 215.83 4.51
2 -5 -7 237.03 5.51
-2 -5 7 238.03 5.62
-2 5 7 242.03 5.41
4 -2 -6 121.11 4.86
-4 -2 6 124.13 3.71
-4 2 6 126.77 3.57
-4 -2 6 132.88 3.67
4 -2 -6 133.32 3.51
-4 2 6 131.52 4.56
4 2 -6 124.52 2.81
1 -11 3 131.59 3.14
-1 11 -3 135.66 4.78
1 11 3 138.65 3.85
1 11 3 127.49 3.04
-1 11 -3 131.97 3.41
1 11 3 138.96 5.23
4 0 3 0.11 0.48
-3 -10 0 224.17 5.14
3 10 0 239.42 5.17
3 10 0 212.12 5.13
-3 -10 0 211.34 4.74
3 10 0 222.71 4.43
-3 10 0 208.42 5.24
3 10 0 230.56 5.35
3 -10 0 211.41 4.49
-5 -1 1 137.05 3.72
-5 -1 1 138.32 3.86
-5 1 1 133.49 4.29
-5 1 1 131.99 3.53
2 -2 6 47.19 3.93
2 2 6 53.74 4.15
-5 -1 3 73.06 2.4
-5 -1 3 75.79 2.71
-5 1 3 75.96 2.55
-5 1 3 74.13 3.19
-5 -2 2 2.87 0.73
-5 -2 2 2.61 0.9
-5 2 2 3.06 1.17
-5 2 2 3.63 1.15
1 10 4 222.43 5.39
1 -10 4 201.55 4.54
1 10 4 221.82 5.92
-4 1 -3 94.05 3.04
-4 -1 -3 92.97 3.29
4 1 3 94.44 3.42
4 -1 3 97 3.37
-3 -3 7 20.06 3.26
3 -3 -7 19.72 1.72
-3 3 7 16.93 2.15
-3 3 7 16.97 2.03
3 3 -7 19.07 1.49
-3 -8 5 121.08 3.21
3 -8 -5 111.92 2.84
-3 -8 5 103.23 2.86
-3 8 5 122.19 4.49
-3 8 5 117.8 3.43
-3 8 5 116.87 3.22
3 8 -5 118.86 3.02
-4 5 -2 15.14 5.56
4 5 2 14.65 2.93
-4 -5 -2 12.34 0.93
1 0 7 1403.69 26.17
1 -1 7 153.61 5.42
1 1 7 136.51 4.59
1 1 7 149.55 4.88
-5 -2 1 9.54 3.05
-5 2 1 12.94 3.4
-5 2 1 13.84 2.18
-5 -2 1 14.39 2.79
-5 2 3 7.84 2.68
-5 -2 3 8.13 2.16
-5 2 3 7.04 1.94
-5 -2 3 6.05 2.92
-1 -11 4 19.99 1.6
-1 11 4 21.97 2.63
-1 -11 4 18.95 2.42
-1 11 4 19.22 1.82
-1 11 4 18.52 1.31
-1 -11 4 20.08 1.92
1 11 -4 20.75 2.03
-1 -11 4 19.69 1.26
4 -2 3 9.34 2.15
-4 -2 -3 10.91 2.45
-4 2 -3 11.64 3.42
4 2 3 11.51 1.34
0 -5 7 244.03 5.26
0 5 7 247.92 5.98
0 5 7 249.18 6.16
0 -5 -7 234.5 5.44
4 8 -2 51.59 3.79
-4 8 2 53.78 2.94
-4 -8 2 56.45 3.44
4 -8 -2 49.7 2.71
4 8 -2 46.33 2.68
-4 -8 2 52.58 2.8
-4 8 2 57.8 3.63
4 8 -2 51.6 3.02
4 3 -6 20.9 1.8
-4 -3 6 16.46 2.21
4 -3 -6 21.11 1.83
-4 3 6 18.32 2.47
-4 -3 6 19.91 2.72
-4 3 6 20.53 3.19
-4 -8 1 2.83 0.86
4 -8 -1 2.2 0.8
-4 -8 1 2.83 0.91
4 8 -1 2.92 0.94
4 8 -1 4.25 1.58
-4 8 1 2.13 1.31
-4 8 1 4.19 1.56
4 8 -1 0.23 0.13
2 3 6 72.98 2.91
2 3 6 72.14 2.59
2 -3 6 69.08 3.97
3 0 5 487.35 12.72
-3 10 3 141.43 4
-3 10 3 140.62 5.17
3 -10 -3 137.98 3.39
3 10 -3 147.9 4.1
-3 10 3 139.35 3.15
-3 -10 3 143.68 3.44
3 10 -3 138.79 4.23
3 10 -3 141.18 3.13
-3 -10 3 135.09 2.99
-3 -10 3 137.59 2.76
-5 3 2 28.73 3.23
-5 -3 2 30.12 2.06
-5 3 2 27.86 2.28
-5 -3 2 31.85 4.3
4 7 -4 69.38 3.53
-4 -7 4 71.81 2.08
-4 7 4 70.84 2.17
4 7 -4 73.88 2.42
-4 -7 4 70.02 1.91
-4 7 4 73.86 2.25
2 10 3 -0.19 0.37
2 -10 3 0.28 0.32
2 10 3 -0.05 0.7
-2 10 -3 -0.14 0.52
2 10 3 0.15 0.23
2 10 3 0.94 0.77
1 2 7 740.72 14.05
1 -2 7 785.1 15.16
1 2 7 772.87 15.05
2 8 -6 12.85 1.61
-2 8 6 15.83 3.99
-2 -8 6 11.85 1.17
-2 8 6 12.65 3.14
-2 -8 6 12.17 2.06
-2 8 6 12.76 1.09
3 -9 2 23.72 1.42
3 9 2 26.09 1.55
3 9 2 28.35 2.32
3 9 2 26.45 2.11
-3 9 -2 30.45 2
1 12 2 30.21 3.25
1 12 2 28.2 2.28
-1 12 -2 22.85 7.98
1 -12 2 26.26 1.59
-1 12 -2 26.29 1.63
1 12 2 26.33 1.44
0 11 -4 156.38 4.16
0 -11 4 153.47 3.69
0 11 4 167.47 6.79
0 -11 4 147.92 3.31
0 11 4 174.29 4.58
0 -8 6 5.03 1.81
0 -8 6 3.67 1.19
0 -8 6 4.23 1.01
0 8 6 4.52 1.94
0 8 6 4.92 1.38
-1 -6 7 27.7 1.73
-1 6 7 35.3 2.92
-1 6 7 39.08 2.57
-1 -6 7 38.61 2.47
-1 -6 7 38.06 2.99
1 -6 -7 35.39 2.35
-1 -10 5 9.52 1.09
-1 10 5 11.92 1.59
1 10 -5 10.6 2.67
-1 -10 5 10.13 2.12
-1 10 5 10.44 1.55
-1 10 5 12.27 1.56
-1 -10 5 9.23 1.2
3 -1 5 76.81 3.29
3 1 5 76.1 4.14
-5 0 0 0.46 0.46
-5 0 0 0.05 0.34
2 -11 2 9.46 1.29
-2 11 -2 11.85 1.12
2 11 2 11.44 1.23
2 -11 2 12.21 1.9
2 11 2 10.57 0.66
2 11 2 14.31 2.98
2 11 2 10.78 2
-2 11 -2 12.95 4.32
-4 -7 -1 178.3 5.3
4 7 1 183.83 4.8
4 7 1 186.11 6.21
-4 7 -1 179.63 4.65
4 7 1 165.36 3.88
-5 0 4 0.3 0.59
-5 0 4 0.46 0.57
-5 3 1 13.09 1.35
-5 -3 1 14.69 3.57
5 3 -1 13.65 1.32
-5 3 1 13.67 1.69
-5 -3 1 15.66 1.26
-3 4 7 8.97 1.54
3 4 -7 9.18 1.06
-3 -4 7 9.61 2.07
-3 4 7 9.13 3.08
-3 4 7 8.43 2.66
3 -4 -7 9.66 1.52
-5 3 3 5.08 2.04
-5 -3 3 4.14 1.61
-5 -3 3 4.39 1.42
-5 3 3 5.09 1.81
0 13 0 0.58 0.52
0 13 0 0.01 0.17
-5 1 0 20.2 1.9
-5 -1 0 18.14 2.01
-5 1 0 20.58 3.07
-5 -1 0 21.64 1.59
-2 -12 1 42.39 2.36
-2 12 1 47.35 3.43
2 12 -1 48.07 3.39
2 -12 -1 47.41 2.39
2 12 -1 49.6 2.82
2 -12 -1 46.85 2.79
-2 12 1 52.48 2.88
2 12 -1 48.55 3.08
-2 -12 1 48.13 2.64
3 6 4 10.78 1.98
-3 6 -4 7.99 2.75
3 6 4 9.1 2.76
-4 3 -3 0.7 0.7
-4 -3 -3 0.71 0.46
4 3 3 2.02 1.02
-1 12 3 82.05 1.94
-1 12 3 90.83 3.57
1 12 -3 83.81 2.81
-1 12 3 84.57 3.3
-1 -12 3 85.76 2.41
-1 -12 3 83.14 2.07
-1 12 3 83 2.99
-1 -12 3 77.85 1.55
-5 1 4 12.99 3.49
-5 -1 4 9.91 2.98
-5 1 4 10.44 2.57
-5 -1 4 11.96 2.72
0 12 3 117.73 3.6
0 12 3 118.79 5.13
0 12 -3 116.84 4.54
0 -12 3 107.75 2.59
0 -12 3 117.49 2.83
0 -12 3 112.79 3.28
4 6 -5 17.95 1.24
-4 6 5 15.88 2.46
-4 -6 5 15.6 1.77
-4 6 5 17.04 2.43
-4 -6 5 19.47 3.54
4 6 -5 16.18 1.01
4 6 -5 13.01 0.59
3 2 5 203.36 5.85
3 -2 5 204.58 5.99
2 7 5 1.38 0.93
2 7 5 2.1 0.69
3 10 1 3.72 1.32
3 -10 1 3.15 1.3
3 10 1 5.24 1.32
3 10 1 4.27 1.8
3 10 1 2.6 1.07
-3 10 -1 4.4 0.85
-4 8 3 16.45 2.98
-4 -8 3 15.84 1.14
4 -8 -3 13.46 1.02
4 8 -3 14.6 1.54
4 8 -3 15.8 1.56
4 8 -3 16.06 1.43
-4 8 3 15.57 1.76
-4 -8 3 17.28 2.05
1 9 5 41.1 2.86
1 9 5 38.97 2.66
1 -9 5 37.43 2.26
-3 8 -3 39.83 3.56
3 8 3 35.41 2.04
3 8 3 45.64 3.38
3 8 3 44.56 3.56
2 12 0 121.65 2.35
-2 -12 0 116.6 3.03
-2 12 0 123.89 3.16
2 -12 0 120.24 3.2
-2 12 0 120.68 3.66
2 -12 0 116.6 2.43
2 12 0 116.71 3.01
2 12 0 129.16 4.61
2 -6 -7 404.81 8.32
-2 -6 7 393.72 7.34
-2 -6 7 432.17 9.02
-2 6 7 426.46 9.05
-2 6 7 434.63 9.84
-2 6 7 433.73 9.17
-1 0 8 0.14 0.34
-1 0 8 0.41 0.28
0 10 5 169.65 5.76
0 10 -5 143.36 4.88
0 -10 5 146.94 3.5
0 -10 5 138.98 3.4
0 -10 5 134.01 3.37
0 10 5 162.77 5.78
1 3 7 34.16 3.83
1 -3 7 31.35 2.28
1 3 7 27.53 2.52
-3 7 6 89.14 3.2
-3 7 6 87.42 2.9
-3 7 6 87.91 2.79
-3 -7 6 92.3 2.81
3 7 -6 87.72 2.33
4 8 0 0.44 0.92
-4 -8 0 1.64 1.06
-4 -8 0 0.95 0.66
-4 8 0 0.64 0.59
4 8 0 1.93 0.8
4 -8 0 0.59 0.37
4 8 0 0.57 0.31
2 9 4 92.08 3.65
-2 9 -4 83.5 3.53
2 9 4 92.9 4.35
0 13 1 47.07 2.48
0 13 -1 46.87 4.67
0 13 1 46.01 3.12
0 13 -1 43.49 2.22
0 13 1 44.21 3.86
1 -7 6 13.18 1.38
1 7 6 14.18 2.71
1 7 6 16.5 3.86
1 -7 6 11.3 1.79
4 -4 -6 40.96 2.98
-4 -4 6 39.08 2.71
4 4 -6 40.85 2.27
-4 -4 6 44.07 3.08
-4 4 6 46.6 2.79
-4 4 6 41.11 2.61
-5 2 0 11.93 1.7
-5 -2 0 12.77 1.75
-5 2 0 12.71 2.19
5 2 0 13.48 1.79
-5 -2 0 14.45 2.63
-1 -1 8 81.42 1.8
-1 -1 8 85.46 2.62
-1 1 8 81.26 2.74
-1 1 8 83.97 2.05
1 1 -8 77.04 2.38
-5 -2 4 94.71 3.18
-5 2 4 102.46 3
-5 2 4 99.11 3.51
-5 -2 4 100.34 3.78
2 4 6 41.08 2.74
2 -4 6 38.38 2.63
2 4 6 45.77 5.27
5 4 -2 122.92 3.87
-5 4 2 116.89 3.54
-5 -4 2 114.98 3.21
-5 4 2 117.57 3.77
-5 -4 2 122.51 3.78
-4 -6 -2 283.77 6.23
4 6 2 260.77 6.59
4 6 2 326.25 8.27
-4 6 -2 310.64 7.01
-2 12 2 72.5 2.27
2 12 -2 67.17 4.25
2 12 -2 70.44 2.34
-2 12 2 68.07 3.34
-2 -12 2 69.07 3.51
2 12 -2 75.25 2.85
-2 12 2 68.33 4.52
-2 -12 2 68.85 3.55
2 0 -8 556.52 10.75
-2 0 8 569.37 11.85
-2 0 8 566.45 11.17
-2 1 8 78.98 1.94
2 -1 -8 82.38 1.96
2 -1 -8 78.12 2.56
-2 -1 8 83.65 3.51
-2 1 8 88.96 3.45
-2 1 8 84.85 3.14
2 1 -8 73.87 2.78
-2 -1 8 84.25 5.49
3 -3 5 389.93 9.42
-3 3 -5 378.82 8.98
3 3 5 366.44 8.42
-1 -2 8 22.65 2.11
1 2 -8 19.94 2.15
-1 2 8 20.91 1.93
-1 2 8 25.09 2.23
-1 -2 8 21.63 2.32
-1 -2 8 15.61 0.9
-2 -11 4 34.47 1.88
-2 -11 4 42.47 2.85
2 11 -4 47.08 3.78
-2 11 4 42.08 2.45
2 11 -4 41.23 2.95
-2 11 4 43.72 4.23
-2 11 4 43.85 4.33
-2 -11 4 40.9 2.17
-2 -11 4 40.12 2.29
-2 -11 4 39.59 2.05
-2 10 5 245.87 5.59
-2 10 5 250.17 6.34
-2 10 5 251.79 7.79
-2 10 5 260.13 7.44
2 10 -5 246.51 6.04
-2 -10 5 222.71 4.69
-2 -10 5 244.38 5.43
-2 -10 5 220.02 4.12
1 -13 0 0.28 0.36
-1 13 0 -0.21 0.72
1 13 0 0.19 0.62
1 13 0 0.23 0.23
-1 13 0 0.41 0.28
1 13 0 0.33 0.54
1 13 0 0.01 0.07
-5 4 1 57.27 4.13
-5 -4 1 57.84 4.14
-5 -4 1 58.68 3.76
5 4 -1 59.03 3.61
-5 4 1 59.84 3.48
0 6 7 5.51 1.37
0 -6 7 3.63 0.94
0 -6 7 2.23 1.04
0 6 7 2.99 1.28
-5 4 3 0 0.51
-5 4 3 0.26 0.39
5 4 -3 0.25 0.32
-5 -4 3 0.34 0.3
-5 -4 3 0.55 0.41
-1 13 1 4.94 1.33
-1 -13 1 3.85 0.77
1 13 -1 4.29 0.75
-1 -13 1 4.68 0.74
1 13 -1 5.73 1.66
-1 13 1 5.29 1.32
4 4 3 110.95 4.29
-4 -4 -3 101.57 3.43
-4 4 -3 107.37 3.77
-1 -9 6 18.7 1.33
1 9 -6 22.11 2.21
-1 -9 6 21.46 2.55
-1 9 6 23.35 3.59
-1 9 6 22.38 3.25
-1 -9 6 21.48 1.59
-1 -9 6 21.44 2.06
-1 9 6 22.93 2.23
-5 -3 0 1.56 0.81
-5 3 0 0.66 0.57
-5 3 0 -0.1 0.59
-5 -3 0 -0.23 0.62
5 3 0 1.81 0.77
-2 -2 8 0.19 0.28
-2 2 8 -0.51 1.05
2 -2 -8 0.37 0.26
-2 -2 8 0.14 0.49
-2 2 8 0.16 0.29
2 2 -8 0.19 0.4
-2 2 8 0.77 0.76
3 11 -1 9 2.04
-3 -11 1 5.3 1.68
-3 11 1 7.93 1.24
-3 -11 1 9.09 1.39
3 11 -1 6.88 1.78
3 11 -1 9.38 2.03
3 11 -1 6.24 0.68
3 -11 -1 6.89 0.56
-3 11 1 8.26 2.52
-5 -3 4 13.99 4.24
-5 3 4 11.94 3.01
-5 -3 4 12.09 3.37
-5 3 4 10.48 3.59
-3 -5 7 21.85 2.72
-3 5 7 20.48 1.83
3 -5 -7 18.77 2.47
3 5 -7 18.7 1.05
-3 5 7 17.11 2.51
-3 5 7 19.34 2.58
-2 12 -1 206.58 5.09
-2 12 -1 211.78 5.97
2 -12 1 194.96 4.88
2 12 1 198.86 4.85
2 12 1 197.68 4.17
2 12 1 222.41 5.54
2 -12 1 192.77 3.89
2 12 1 203.22 4.02
1 4 7 0.28 0.41
1 4 7 0.34 0.47
1 -4 7 1 0.7
-3 9 5 30.88 2.27
-3 -9 5 26.64 1.9
-3 -9 5 32.29 3.37
3 -9 -5 26.41 1.66
3 9 -5 30.43 2.41
-3 9 5 28.35 2.47
-3 9 5 31.33 2.15
-3 -10 4 0.8 0.59
-3 -10 4 0.14 0.14
3 10 -4 0.73 0.47
-3 10 4 0.5 0.68
-3 10 4 0.11 0.53
-3 10 4 0.18 0.22
3 11 -2 34.54 2.32
-3 -11 2 35.15 2.45
3 11 -2 38.62 3.14
3 -11 -2 34.88 1.9
-3 11 2 37.43 2.98
-3 11 2 34.32 2.38
-3 11 2 36.9 2.35
3 11 -2 42.26 2.75
-3 -11 2 35.02 2.04
-1 -7 7 279.55 5.4
-1 7 7 313.95 7.25
-1 -7 7 293.29 6.13
-1 -7 7 272.99 6.11
-1 -3 8 38.92 1.88
-1 -3 8 36.19 1.74
-1 3 8 45.56 2.48
-1 -3 8 45.81 4.2
-1 3 8 43.76 2.69
1 3 -8 38.22 3.82
-1 -3 8 45.25 3.32
0 13 2 0.47 0.32
0 13 2 0.55 0.63
0 13 2 0.02 0.12
0 13 2 0.9 0.71
0 -13 2 0.27 0.43
0 13 -2 0.63 0.45
0 13 2 0.56 0.16
0 13 -2 0.08 0.15
0 -13 2 0.17 0.18
1 13 1 118.31 3.84
-1 13 -1 104.31 2.56
1 13 1 108.28 3.97
1 13 1 100.34 2.12
1 -13 1 97.81 2.71
1 13 1 105.62 2.33
-1 13 -1 104.86 4.06
-4 8 4 21.44 3.1
-4 -8 4 23.89 2.01
-4 -8 4 21.17 2.07
4 8 -4 20.95 2.47
-4 8 4 23.15 1.52
4 8 -4 23.48 1.38
4 5 -6 14.5 1.44
-4 5 6 16.7 2.97
4 5 -6 15.9 0.95
-4 -5 6 15.68 3.25
-4 -5 6 13.79 1.98
-4 5 6 11.26 1.78
3 -11 0 1.19 0.36
-3 11 0 1.57 1
3 11 0 0.82 0.34
-3 -11 0 1.07 0.41
3 11 0 1.67 0.67
3 11 0 0.66 0.23
3 11 0 2.03 0.98
-3 -11 0 1.32 0.56
2 -5 6 25.05 1.97
2 5 6 25.3 3.17
2 5 6 26.1 1.95
3 4 5 52.58 3.68
3 4 5 47.86 3.41
3 -4 5 46.04 4.43
-3 4 -5 46.16 4.21
-4 9 2 0.44 0.34
4 -9 -2 0.16 0.21
-4 9 2 -0.28 0.84
4 9 -2 0.24 0.55
-4 -9 2 0.44 0.29
4 9 -2 0.57 0.41
4 9 -2 0.06 0.19
-5 -5 2 7.42 2.19
5 5 -2 7.04 0.76
-5 5 2 7.76 1.39
-5 5 2 9.34 3.34
-5 -5 2 9.55 2.7
3 7 4 3.92 1.39
-3 7 -4 2.06 0.96
3 7 4 2.8 0.73
-5 0 -1 86.55 2.85
2 3 -8 283.31 5.84
-2 -3 8 296.93 6.86
-2 3 8 287.66 6.04
-2 3 8 297.24 6.67
2 -3 -8 289.15 5.72
-2 3 8 320.79 7.28
-2 -3 8 280.97 5.76
1 11 4 92.82 4.74
-1 11 -4 94.63 4.1
1 -11 4 86.82 2.38
1 11 4 101.09 4.07
4 9 -1 4.79 1.37
-4 -9 1 5.25 1.57
-4 -9 1 3.55 1.24
-4 9 1 4.75 1.55
4 9 -1 3.79 1.38
-4 9 1 4.32 1.39
4 -9 -1 2.76 1.07
-4 -9 1 5.06 0.73
4 9 -1 5.73 1.47
-1 13 2 0.52 0.21
-1 -13 2 1.19 0.42
-1 13 2 0.48 0.59
1 13 -2 0.92 0.81
-1 -13 2 0.65 0.3
0 0 8 139.53 3.46
0 0 8 146.95 4.49
4 7 -5 118.76 2.2
-4 -7 5 116.81 3.34
4 7 -5 126.93 3.26
-4 7 5 126.16 3.3
-4 -7 5 122.52 3.35
-4 7 5 127.98 3.7
-2 12 3 5.88 1.02
2 12 -3 9.67 2.45
-2 12 3 4.84 1.48
-2 -12 3 6.79 1.22
-2 12 3 6.19 2.11
2 12 -3 6.1 1.33
-2 -12 3 6.1 1.23
-5 0 5 251.09 5.89
-5 0 5 252.97 6.24
1 12 3 115.39 3.85
1 12 3 93.25 2.33
1 12 3 114.93 4.56
-1 12 -3 98.32 2.54
1 -12 3 96.38 2.55
-1 12 -3 100.76 5.82
5 1 1 58.53 3.47
-5 1 -1 58.16 3.5
-5 -1 -1 57.78 3.38
-2 9 6 0.23 0.31
-2 9 6 1.83 1.29
-2 -9 6 0.48 0.15
-2 -9 6 0.26 0.55
-2 -9 6 0.94 0.31
2 9 -6 -0.01 0.27
-2 9 6 1.77 0.61
4 8 1 165.89 6.6
-4 -8 -1 162.75 6.89
4 8 1 166.56 6.97
4 8 1 147.78 3.54
-4 8 -1 160.27 5.57
0 -1 8 15.56 1.41
0 1 8 17.13 2.09
0 1 8 17.75 2.17
0 -1 8 17.46 3.14
0 -9 6 320.37 11.85
0 9 6 376.22 14.1
0 9 6 370.11 13.94
0 -9 6 332.51 12.19
-5 1 5 1.63 0.83
-5 -1 5 2.69 1.19
-5 1 5 1.6 1.05
-5 -1 5 1.49 1.03
-2 7 7 71.52 10.19
-2 7 7 73.44 3.55
-2 -7 7 67.96 4.16
-2 7 7 71.13 3.26
4 0 -7 -0.01 0.21
-4 0 7 -0.01 0.81
4 0 -7 0.35 0.41
-4 0 7 0.6 0.62
-5 -4 0 285.68 10.9
-5 4 0 262.97 9.99
-5 -4 0 267.84 10.29
-5 4 0 275.89 10.99
5 4 0 276.56 10.57
-5 4 4 121.29 5.15
-5 -4 4 120.19 5.24
-5 4 4 113.25 5.19
-5 -4 4 119.11 4.98
-5 -5 1 3.96 2.66
5 5 -1 6.71 2.13
-5 5 1 3.87 2.34
-5 -5 1 6.71 2.67
-5 5 1 4.9 1.61
2 8 5 97.63 4.68
2 8 5 98.78 5.1
-5 -5 3 15.93 1.61
-5 5 3 13.43 2
-5 -5 3 15.14 1.92
-5 5 3 15.45 2.39
5 5 -3 13.42 1.45
-4 1 7 74.05 3.83
-4 -1 7 77.91 4.24
4 1 -7 77.59 3.17
4 -1 -7 71.87 3.14
-4 -1 7 73.23 3.43
4 -1 -7 74.52 3.13
-4 1 7 75.52 3.6
4 1 -7 73.76 3.14
-4 -5 -3 3.89 1.11
4 5 3 2.96 0.74
-4 5 -3 2.43 0.91
3 10 2 0.51 0.56
3 -10 2 0.24 0.19
3 10 2 -0.16 0.59
-3 10 -2 0.13 0.33
3 10 2 -0.03 0.26
4 7 2 7.12 2.78
-4 -7 -2 5.16 2.41
-4 7 -2 6.85 2.11
4 7 2 7.66 2.28
5 2 1 64.61 3.12
-5 -2 -1 61.62 3.35
-5 2 -1 58.6 3.68
-3 -8 6 1.39 0.89
-3 8 6 0.44 1.33
-3 -8 6 1.1 0.57
-3 8 6 1.19 0.4
3 8 -6 1.37 0.36
-3 8 6 2.15 0.85
0 -2 8 1.42 0.66
0 -2 8 0.7 0.69
0 2 8 1.24 0.63
0 2 8 1 0.59
-3 11 3 44.04 2.98
-3 -11 3 42.27 2.38
-3 -11 3 41.07 2.41
3 -11 -3 40.82 2.49
3 11 -3 40.53 2.89
-3 -11 3 47.61 2.91
-3 11 3 43.83 2.59
3 11 -3 44.51 2.9
-3 11 3 44.21 3.18
3 11 -3 44.29 2.79
-5 2 5 13.75 2.96
-5 -2 5 13.76 3.29
-5 2 5 15.03 1.96
-5 -2 5 15.86 2.16
1 -8 6 58.18 4.01
1 8 6 64.12 4.19
1 -8 6 54.95 3.8
1 8 6 60.75 3.25
2 11 3 23.35 2.32
-2 11 -3 20.58 2.71
2 11 3 18.96 1.78
2 11 3 20.76 1.71
2 11 3 24.99 2.79
4 9 -3 1.68 0.92
4 -9 -3 1.55 0.69
-4 9 3 1.67 0.59
-4 -9 3 1.36 0.66
4 9 -3 2.42 0.8
-4 9 3 2.09 1.27
-4 -9 3 2.05 0.77
-1 -4 8 18.76 1.11
-1 -4 8 21.84 1.55
1 -4 -8 20.4 2.59
-1 -4 8 20.88 3.85
-1 4 8 22.62 3.45
1 4 -8 17.54 2.83
-1 4 8 22.9 3.47
-1 12 4 21.33 2.49
-1 12 4 21.34 2.19
-1 -12 4 20.93 1.3
-1 -12 4 22.15 1.75
1 12 -4 24.16 3.06
-1 -12 4 21.1 1.61
-1 12 4 21.04 1.75
-1 12 4 24.54 2.53
1 5 7 14.15 3.28
1 5 7 12.3 2.76
1 -5 7 12 1.93
3 9 3 63.36 3.86
3 9 3 64.16 3.8
3 9 3 52.19 3.12
-3 9 -3 60.37 3.31
-1 11 5 69.68 3.22
-1 11 5 75.02 3.99
1 11 -5 71.04 3.82
-1 -11 5 71.51 2.88
-1 -11 5 66.89 3.25
-1 11 5 77.1 4.66
-1 -11 5 74.58 3.24
-4 2 7 104.46 4.5
4 2 -7 109.79 4.21
-4 -2 7 115.57 4.86
4 2 -7 105.91 4.17
-4 2 7 110.38 4.82
4 -2 -7 110.89 4.4
-4 -2 7 112.1 4.81
-4 -9 0 -0.04 0.23
4 9 0 0.14 0.51
-4 -9 0 0.13 0.45
4 9 0 0.3 0.42
-4 9 0 0.27 0.49
4 -9 0 0.03 0.25
4 9 0 0.36 0.4
0 -7 7 22.8 1.88
0 7 7 29.54 2.54
0 -7 7 25.13 1.82
0 7 7 25.59 2.68
3 -6 -7 -0.02 0.2
-3 6 7 0.71 0.55
-3 -6 7 0.53 0.68
-3 6 7 0.83 0.68
-3 6 7 0.8 0.62
-3 0 8 0 0.19
3 0 -8 0.61 0.42
3 0 -8 0.05 0.07
-3 0 8 0.18 0.37
1 10 5 920.81 33.26
1 10 5 960.03 7.51
-2 4 8 5.52 1.78
-2 4 8 3.31 2.64
-2 -4 8 4.48 2.27
2 4 -8 5.09 0.75
-2 4 8 4.41 1.18
2 -4 -8 4.72 0.89
-2 -4 8 3.53 0.88
-4 0 -4 97.27 4.65
4 0 4 97.45 4.66
0 -12 4 11.18 0.95
0 -12 4 12.49 2.25
0 12 4 13.61 1.51
0 12 4 13.95 2.25
0 12 -4 11.71 3.22
3 -1 -8 11.76 1.17
-3 1 8 9.64 1.91
-3 1 8 5.4 1.75
3 -1 -8 15.07 1.92
3 1 -8 12.76 1.66
-3 -1 8 8.87 1.99
-3 -1 8 9.27 2.73
-4 -1 -4 47.08 4.97
4 1 4 51.95 3.94
4 -1 4 46.96 3.11
-4 1 -4 43.35 3.24
2 10 4 39.42 2.91
2 10 4 28.53 2.48
2 10 4 35.52 2.81
-2 10 -4 34.83 2.36
3 5 5 17.09 3.51
-3 5 -5 11.47 1.1
3 -5 5 12.69 2.82
3 5 5 13.4 2.69
3 11 1 34.64 2.13
3 11 1 38.59 2.99
3 11 1 45.09 3.02
-3 11 -1 39.24 2.55
3 -11 1 36.9 2.28
3 11 1 36.46 2.83
2 12 2 4.68 0.88
2 -12 2 3.96 1.28
2 -12 2 4.35 0.74
-2 12 -2 4.55 1.61
-2 12 -2 5 1.71
2 12 2 5.83 2.48
2 12 2 4.15 0.94
2 12 2 5.1 1.75
5 3 1 61.43 3.33
-5 3 -1 64.23 3.09
-5 -3 -1 67.74 3.41
1 13 2 12.33 2.81
1 13 2 8.08 0.54
1 -13 2 9.27 0.69
1 -13 2 7.84 1.05
-1 13 -2 7.86 1.09
1 13 2 11.39 2.95
-1 13 -2 9.5 3.43
0 3 8 83.36 3.67
0 3 8 84.86 3.97
0 -3 8 82.98 3.98
-5 3 5 70.77 4.93
-5 -3 5 74.99 3.51
-5 3 5 68.23 3.59
-5 -3 5 73.17 4.33
-4 -6 6 51.37 4.41
-4 6 6 51.23 3.4
4 6 -6 51.61 3.21
-4 6 6 49.85 3.14
-4 -6 6 50.44 4.28
0 -11 5 55.97 3.69
0 11 5 62.54 3.71
0 11 5 59.04 2.77
0 -11 5 56.1 3.4
0 -11 5 59.12 1.67
0 11 -5 58.9 3.3
2 6 6 9.71 2.48
2 6 6 7.4 2.19
2 -6 6 8.77 2.53
-3 2 8 250.54 9.68
3 -2 -8 234.55 8.55
-3 -2 8 237.42 9.24
3 2 -8 232.39 8.71
-3 -2 8 209.81 7.87
-3 2 8 223.62 8.6
5 6 -2 33.89 2.53
-5 -6 2 33.32 2.3
-5 6 2 33.1 3.15
-5 -6 2 35.91 4.05
-5 6 2 32.25 2.86
-4 -3 7 19.26 4.82
4 -3 -7 19.78 2.5
-4 3 7 19.16 3.28
4 3 -7 20.02 1.91
-4 -3 7 18.83 3.19
-4 3 7 17.19 2.72
5 5 0 144.18 6.08
-5 -5 0 139.02 5.63
-5 5 0 128.43 5.25
-5 5 0 136.89 5.99
-5 -5 0 128.81 5.93
4 -2 4 64.06 3.31
4 2 4 64.97 4.64
-4 2 -4 63.18 3.32
-4 -2 -4 59.17 2.55
-5 5 4 19.3 3.66
-5 5 4 20.61 3.25
-5 -5 4 17.67 2.56
5 5 -4 20.93 1.56
-5 -5 4 22.48 3.2
2 -13 -1 77.45 3.41
2 13 -1 83.61 3.71
-2 13 1 79.96 3.36
-2 13 1 92.98 5.07
-2 -13 1 72.54 3.09
2 13 -1 71.49 3.58
2 13 -1 87.97 4.08
-2 -13 1 79.48 3.14
-1 13 3 25.4 1.52
-1 13 3 26.46 2.21
-1 -13 3 27.53 2.6
1 13 -3 32.36 2.57
-1 13 3 27.46 1.86
-1 13 3 30.76 2.73
-1 -13 3 27.06 2.13
0 -13 3 22.97 1.42
0 13 -3 20.86 2.39
0 13 3 24.9 3.64
0 -13 3 30.22 2.69
0 13 3 24.71 1.49
0 -13 3 19.76 1.97
0 13 3 21.77 2.89
-1 -8 7 19.75 1.85
-1 8 7 27.4 2.93
-1 8 7 24.33 1.87
-1 -8 7 26.46 1.8
-1 -8 7 26.27 3.39
-1 8 7 27.68 2.59
5 6 -1 213.99 8.47
-5 6 1 215.47 8.48
-5 -6 1 226.46 8.84
-5 6 1 224.1 8.99
-5 -6 1 195.51 7.61
-2 13 0 6.86 2.06
-2 13 0 6.83 1.16
2 13 0 7.3 2.05
2 -13 0 6.74 1.12
2 13 0 5.5 1.36
2 13 0 8.81 1.68
2 -13 0 6.12 0.41
2 13 0 6.65 0.28
1 10 -6 56.4 3.42
-1 10 6 55.98 3.39
-1 -10 6 53.06 3.17
-1 10 6 62.94 3.84
-1 -10 6 56.3 3.46
-1 -10 6 54.49 3.19
-1 10 6 61.61 3.43
-1 -10 6 51.61 3.12
-5 -6 3 1.74 0.87
-5 -6 3 1.66 0.96
-5 6 3 2.44 1.13
5 6 -3 1.63 0.48
-5 6 3 2.16 1.1
0 14 0 0.83 0.97
0 14 0 1.03 0.4
-1 -5 8 14.84 3.8
-1 5 8 13.75 4.02
-1 -5 8 9.51 0.7
-1 5 8 12.2 2.45
1 -5 -8 11.71 1.71
-1 -5 8 10.9 1.46
4 6 3 272.39 11.11
-4 6 -3 276.96 11.43
4 6 3 287.42 11.01
-2 -11 5 1.93 0.39
-2 -11 5 2.69 0.93
2 11 -5 2.87 0.92
-2 -11 5 3.46 1.15
-2 11 5 4.79 1.37
-2 11 5 4.59 1.53
-2 11 5 3.51 1.98
-2 11 5 4.65 1.74
3 8 4 58.78 2.56
3 8 4 68.16 3.64
-3 8 -4 57.73 3.78
-4 8 5 48.02 3.32
-4 8 5 50.02 3.69
4 8 -5 49.07 3.74
-4 -8 5 52.35 3.48
-4 -8 5 49.16 3.53
-3 3 8 72.75 3.61
-3 -3 8 65.46 2.86
3 3 -8 70.19 3.11
-3 3 8 69.42 2.94
3 -3 -8 71.46 3.17
-3 -3 8 76.67 5.39
-3 3 8 75.69 3.62
-3 10 5 35.11 2.55
-3 10 5 33.91 4.46
-3 10 5 36.85 2.66
-3 -10 5 37.73 2.93
3 10 -5 39.17 3.26
-3 -10 5 31.37 1.96
-4 9 4 58.07 3.45
-4 -9 4 55.46 3.45
4 9 -4 55.02 3.49
-4 -9 4 61.1 2.7
4 9 -4 54.72 3.07
-4 9 4 59.4 2.16
-2 -13 2 13.85 1.56
2 13 -2 18.32 2.13
-2 13 2 16.47 1.93
-2 13 2 16.1 1.31
2 13 -2 15.29 1.98
-2 -13 2 15.33 1.89
-5 4 -1 85.67 4.21
-5 -4 -1 100.93 4.4
5 4 1 107.09 4.85
-2 -5 8 3.02 1.16
-2 5 8 3.98 1.6
-2 5 8 2.32 1.09
-2 5 8 4.16 1.07
2 -5 -8 3.34 0.69
-2 -5 8 2.73 0.78
1 -6 7 15.73 1.93
1 6 7 22.73 3.5
1 -6 7 22.56 1.92
1 6 7 21.7 2.35
2 0 7 0.35 0.34
-2 12 4 1.09 1.26
-2 -12 4 0.4 0.21
-2 -12 4 1.22 0.45
-2 12 4 1.18 0.41
-2 -12 4 0.72 0.31
2 12 -4 0.09 0.45
-2 -12 4 0.62 0.36
2 12 -4 0.47 0.23
-2 12 4 0.93 0.65
4 3 4 82.97 4.05
-4 3 -4 86.51 4.55
4 -3 4 91.09 4.43
-4 -3 -4 86.44 3.91
0 4 8 44.36 3.21
0 4 8 38.93 2.47
0 -4 8 41.27 2.84
0 14 1 1.01 0.36
0 14 -1 2.08 0.66
0 14 1 1.56 0.54
0 14 -1 2.05 1.04
-5 4 5 219.09 8.43
-5 4 5 220.71 8.76
-5 -4 5 223.77 8.62
-5 -4 5 213.8 8.34
-2 -8 7 1.25 0.91
-2 8 7 0.86 0.79
-2 8 7 0.25 0.74
2 8 -7 0.24 0.27
-2 -8 7 0.1 0.13
-2 -8 7 0.77 0.3
-2 8 7 1.6 1.23
2 1 7 7.63 3.2
2 -1 7 7.53 2.5
3 -11 -4 21.96 1.55
-3 11 4 25.99 1.97
-3 -11 4 22.04 1.31
-3 -11 4 22.59 1.69
-3 -11 4 24.84 2.06
-3 11 4 22.68 2.7
-3 11 4 24.58 1.61
3 11 -4 27.32 2.7
-4 4 7 220.68 8.73
-4 -4 7 210.46 8.28
-4 4 7 209.17 8.18
4 4 -7 210.83 7.74
4 4 -7 219.38 7.94
4 -4 -7 221.22 8.44
-4 -4 7 202.88 7.91
4 9 1 196.94 7.89
4 9 1 203.98 8.57
-4 9 -1 193.77 7.96
4 9 1 189.47 7.42
3 12 -1 93.61 4.31
3 -12 -1 90.57 3.57
3 12 -1 82.67 3.03
-3 -12 1 86.14 3.81
3 12 -1 103.87 4.28
-3 -12 1 98.56 3.93
3 12 -1 97.79 4.26
-3 12 1 99.24 4.19
-3 12 1 74.99 4.13
4 10 -2 59.8 2.85
4 10 -2 71.75 3.35
4 10 -2 72.49 2.97
-4 -10 2 65.61 2.85
-4 -10 2 65.13 2.64
-4 10 2 71.65 4.3
-4 -10 2 68.37 3.18
-4 10 2 68.09 3
4 -10 -2 62.19 2.66
4 8 2 0.8 0.73
-4 8 -2 0.51 0.66
4 8 2 0.99 0.68
4 10 -1 98.19 4.06
-4 10 1 98.52 3.94
4 10 -1 93.46 3.66
-4 -10 1 87.92 3.63
-4 -10 1 98.99 4.61
-4 -10 1 97.5 3.84
4 10 -1 97.88 4.38
4 -10 -1 90.1 3.86
-4 10 1 98.49 5.86
3 6 5 31.98 4.5
3 6 5 37.29 4.31
-3 6 -5 33.27 2.63
2 9 5 9.07 2.03
-2 9 -5 6.2 2.77
2 9 5 5.72 1.94
-3 -7 7 125.37 5.3
-3 7 7 120.29 5.43
3 7 -7 126.44 4.75
-3 7 7 127.92 5.37
-3 7 7 138.8 5.79
-3 7 7 126.89 5.47
-5 0 -2 1.61 1.28
5 0 2 0.38 0.95
-3 12 2 2.42 0.53
3 12 -2 1.92 0.69
3 -12 -2 2.59 0.69
3 12 -2 1.53 0.62
3 12 -2 2.74 1.22
-3 12 2 2.45 1.21
-3 12 2 2.54 0.92
-3 -12 2 1.8 0.93
-3 -12 2 1.75 0.5
2 -2 7 103.29 5.18
2 2 7 104.03 5.54
2 2 7 113.25 5.87
-2 10 6 6.27 1.01
-2 -10 6 6.22 1.23
-2 10 6 7.15 1.1
-2 10 6 9.11 2.3
2 10 -6 6.03 1.76
-2 -10 6 6.12 0.54
-2 -10 6 5.35 1.45
1 14 0 176.88 7.36
1 14 0 169.15 6.71
-1 14 0 169.39 7.15
1 14 0 158.5 5.66
-1 14 0 162.12 6.14
1 14 0 158.66 5.75
0 -10 6 79.36 3.71
0 10 6 74.26 4.26
0 -10 6 75.11 3.23
0 10 6 88.25 4.43
0 -10 6 70.01 3.29
-5 0 6 0.42 0.41
5 0 -6 0.18 0.32
-5 0 6 0.33 0.55
5 1 2 160.82 7.51
-5 -1 -2 153.98 6.28
5 -1 2 162.43 8.92
-5 1 -2 154.96 6.37
2 13 1 16.34 1.37
2 -13 1 15.62 1.31
2 -13 1 14.69 1.78
2 13 1 16.19 1.09
-2 13 -1 20.16 5.15
-2 13 -1 17.73 1.81
2 13 1 18.52 3.71
2 13 1 19.62 2.89
-1 14 1 1.92 0.69
1 14 -1 2.57 0.83
-1 -14 1 2.12 0.52
-1 14 1 1.98 1.44
-3 9 6 74.95 4.07
-3 9 6 74.07 3.44
-3 9 6 74.06 3.69
-3 -9 6 69.76 3.55
3 9 -6 78.89 3.36
-3 -9 6 76.54 4.22
0 -8 7 61.98 3
0 8 7 63.81 4.35
0 8 7 64.16 3.25
3 0 6 0.81 0.57
1 9 6 33.11 3.12
1 9 6 34.29 3.92
1 -9 6 25.45 2.27
-5 -1 6 0.39 0.36
5 -1 -6 0.06 0.26
5 -1 -6 0.15 0.23
-5 1 6 -0.13 0.81
-5 1 6 -0.37 0.58
5 1 -6 -0.27 0.26
-5 -1 6 0.46 0.51
-5 -6 0 0.89 0.64
5 6 0 0.82 0.9
-5 -6 0 1.5 0.76
-5 6 0 0.36 0.59
-5 6 0 0.54 0.59
3 12 0 158.09 5.79
-3 -12 0 151.15 5.85
-3 12 0 167.05 8.13
3 12 0 170.64 7.27
3 12 0 152.29 6.2
3 12 0 167.57 6.5
3 -12 0 154.49 5.87
-3 12 0 166.72 7.13
-5 6 4 69.48 3.15
-5 -6 4 62.73 3.74
-5 -6 4 68.52 3.25
-5 6 4 67.7 3.36
5 6 -4 67.7 3.31
-3 4 8 11.78 1.57
3 -4 -8 10 1.55
-3 4 8 11.13 2.75
3 4 -8 9.14 1.32
-3 -4 8 17.37 4.45
-3 4 8 14.2 3.93
-3 -4 8 8.37 1.3
3 -1 6 0.7 0.44
-4 7 6 38.46 2.55
-4 -7 6 36.32 3.56
-4 -7 6 35.96 3.25
4 7 -6 37.12 2.37
-4 7 6 36.49 4.7
1 12 4 153.69 6.26
1 12 4 147.68 7.3
-1 12 -4 151.67 6.38
1 -12 4 137.39 5.43
-4 4 -4 0.93 1.4
4 4 4 0.1 0.88
2 7 6 199.95 8.97
2 7 6 208.55 8.21
2 -7 6 195.76 8
-5 -7 2 45.68 3.13
-5 -7 2 40.3 3.54
5 7 -2 43.44 3.32
5 7 -2 44.11 3.23
-5 7 2 44.96 3.37
-5 7 2 42.76 2.85
5 7 -2 35.28 2.87
4 10 -3 68.76 3.27
-4 -10 3 66.65 2.92
-4 10 3 72.9 3.44
4 10 -3 68.03 2.88
-4 -10 3 67.81 3.45
-4 10 3 66.2 3.14
4 -10 -3 61.78 2.89
-5 2 -2 199.42 7.91
5 2 2 205.07 10.94
-5 -2 -2 209.52 8.44
3 -11 2 36.01 2.2
3 11 2 43.88 3.45
-3 11 -2 42.47 3.06
3 11 2 38.96 2.39
3 11 2 40.52 3.19
3 10 3 192.47 7.28
3 10 3 223.13 9.27
-3 10 -3 218.41 8.85
3 10 3 227.28 8.9
5 2 -6 103.73 4.1
-5 -2 6 119.72 5.13
-5 2 6 117.72 5.58
-5 2 6 117.05 5.59
-5 -2 6 116.41 5.08
-1 6 8 126.86 5.61
-1 6 8 117.66 4.88
-1 -6 8 128.8 5.44
-1 -6 8 111.65 4.11
-1 -6 8 117.19 4.69
-5 5 -1 18.6 3.47
-5 -5 -1 17.77 1.77
5 5 1 16.91 2.49
0 -14 2 0.2 0.13
0 -14 2 0.37 0.14
0 14 -2 0.12 0.19
0 14 -2 0.27 0.58
0 14 2 1.44 0.73
0 14 2 0.73 0.36
0 14 2 0.74 0.45
2 3 7 0.72 0.97
2 -3 7 1.4 1.07
2 3 7 1 0.82
1 0 8 0.98 0.7
1 0 8 0.11 0.28
4 -10 0 3.03 1.66
-4 -10 0 5.28 1.75
4 10 0 3.35 1.35
4 10 0 5.53 2.01
4 10 0 7.08 2.23
-4 -10 0 4.56 0.81
-4 10 0 6.12 1.36
0 5 8 41.02 3.03
0 -5 8 42.1 2.81
0 5 8 43.87 3.15
0 -5 8 35.79 2.29
1 14 1 34.46 2.02
-1 14 -1 33.24 2.36
1 14 1 31.2 1.94
1 -14 1 34.09 2.12
-1 14 -1 34.09 2.93
1 14 1 35.06 4.58
1 14 1 35 2.61
-2 -13 3 0.23 0.28
2 13 -3 0.08 0.28
-2 13 3 0.23 0.29
-2 13 3 0.26 0.27
2 13 -3 0.35 0.29
-2 13 3 0.32 0.53
-2 -13 3 -0.01 0.18
-5 -5 5 2.89 1.02
-5 5 5 1.19 0.97
-5 -5 5 1.22 0.89
-5 5 5 1.52 1.72
3 2 6 78.36 4.04
3 -2 6 78.76 4.22
-1 13 -3 43.32 3.86
1 13 3 51.42 3.78
1 13 3 42.93 2.54
1 13 3 46.25 3.47
-1 13 -3 45.37 2.81
1 -13 3 39.04 2.72
1 1 8 2.5 0.88
1 1 8 0.84 0.42
1 -1 8 0.79 0.81
-5 -7 1 14.54 1.85
5 7 -1 13.82 1.25
-5 7 1 14.79 4.95
-5 7 1 13.83 2.37
-5 -7 1 13.73 1.26
5 7 -1 16.71 2.69
-5 7 3 18.67 3.07
5 7 -3 17.68 1.88
5 7 -3 16.3 1.52
-5 -7 3 18.73 2.1
-5 7 3 18.85 3.22
5 7 -3 15.62 1.94
-5 -7 3 19.13 1.95
4 -5 -7 0.72 0.67
4 5 -7 0.43 0.24
-4 -5 7 -0.25 0.65
-4 5 7 -0.11 0.91
4 5 -7 0.56 0.15
-4 5 7 0.25 0.55
-4 -5 7 0.57 0.95
2 -6 -8 296.67 11.08
-2 6 8 322.85 12.1
-2 -6 8 323.96 12.38
-2 6 8 330.63 13.27
-2 -6 8 307.14 11.09
-2 6 8 312.35 11.95
-4 7 -3 42.02 2.92
4 7 3 48.19 3.42
4 7 3 46.51 4.51
-1 14 2 15.36 1.94
1 14 -2 22 7.3
-1 -14 2 23.03 1.57
-1 14 2 16.54 1.95
-1 -14 2 14.69 1.41
3 12 -3 0.05 0.09
-3 12 3 0.52 0.72
-3 12 3 0.52 0.66
3 12 -3 0.25 0.35
-3 -12 3 0.57 0.64
-3 12 3 0.05 0.22
-3 -12 3 0.15 0.28
3 12 -3 0.77 0.6
3 -12 -3 0.13 0.25
2 12 3 96.07 5.26
2 12 3 87.25 3.63
-2 12 -3 96.1 4.12
2 12 3 91.71 3.82
2 12 3 102.42 5.27
1 11 5 7.34 2.64
1 11 5 6.27 2.34
-1 -12 5 12.93 1.67
-1 12 5 16.24 1.75
-1 -12 5 12.5 1.15
-1 12 5 15.25 2.16
1 12 -5 8.97 3.15
-1 -12 5 13.3 2.27
-1 12 5 14.74 1.61
-1 -12 5 14.33 2.9
5 3 2 1.52 0.81
-5 3 -2 3.75 1.24
-5 -3 -2 2.72 0.91
1 -7 7 9.95 2.93
1 7 7 10.15 2.64
1 7 7 9.56 3.45
1 -7 7 5.99 2.36
1 2 8 0.68 0.89
1 2 8 0.3 0.49
1 -2 8 0.44 0.71
2 11 4 310.05 12.11
-2 11 -4 287.67 11.06
2 11 4 311.79 11.91
-1 9 7 4.12 1.51
-1 -9 7 2.34 0.65
-1 -9 7 2.62 0.74
-1 -9 7 4.58 1.01
-1 9 7 4.88 1.44
-1 9 7 4.04 1.98
-5 -3 6 74.06 3.69
5 3 -6 61.22 3.57
-5 3 6 71.59 8.27
-5 -3 6 63.29 3.09
-5 3 6 66.81 6.08
-1 13 4 14.75 1.88
-1 13 4 16.13 1.28
-1 -13 4 15.14 1.65
-1 -13 4 14.55 0.93
-1 -13 4 13.23 1.39
-1 13 4 18.4 2.65
-1 13 4 15.6 1.39
1 13 -4 17.19 4.12
3 3 6 1.15 0.87
3 -3 6 1.63 1.02
-3 -5 8 29.21 3.94
-3 5 8 25.23 2.7
-3 5 8 25.55 3.08
3 -5 -8 23.18 2.07
-3 5 8 26.46 4.3
3 5 -8 23.9 1.48
3 12 1 40.35 2.62
3 12 1 46.64 3.71
3 -12 1 42.39 2.47
-3 12 -1 43.31 2.77
3 12 1 48.34 3.26
-3 9 -4 411.56 15.86
3 9 4 419.25 15.83
3 9 4 413.24 15.56
2 4 7 9.49 2.91
2 4 7 6.68 1.18
2 -4 7 10.77 2.49
-4 5 -4 -0.21 0.66
4 5 4 1.24 1.12
0 13 4 23.79 2.27
0 13 4 25.26 4.2
0 -13 4 21.59 2.25
0 -13 4 20.73 1.37
0 13 -4 20.01 2.21
4 9 -5 39.15 3.1
-4 9 5 39.51 2.81
-4 -9 5 41.53 2.8
-4 9 5 39.59 2.76
-4 -9 5 43.05 3.32
-4 9 5 42.37 2.98
3 7 5 0.68 0.83
-3 7 -5 0.33 0.62
3 7 5 0.35 0.73
0 -12 5 8.55 1.89
0 12 5 6.97 2.11
0 12 5 11.04 2.7
0 12 -5 6.96 1.91
0 -12 5 5.55 1.33
-2 9 7 86.13 5.41
-2 -9 7 75.29 3.19
-2 -9 7 83.2 3.05
-2 9 7 86.57 4
-2 9 7 88.49 4.43
-2 -9 7 93.18 4.11
2 9 -7 79.37 3.56
2 13 2 28.46 1.99
2 -13 2 26.23 1.79
-2 13 -2 30.18 3.21
2 13 2 33.1 4.43
2 13 2 29.69 2.42
2 13 2 27.54 1.8
-2 13 -2 30.69 2.12
1 -3 8 106.9 4.89
1 3 8 98.95 4.88
1 3 8 97 4.49
-1 11 6 99.11 5.3
-1 11 6 102.96 5.29
-1 -11 6 90.29 3.89
1 11 -6 97.63 4.35
-1 -11 6 105.06 4.36
-1 11 6 97.54 4.46
-1 -11 6 93.33 3.99
-3 8 7 91.65 4.28
-3 8 7 72.9 4.27
3 8 -7 72.15 2.95
-3 -8 7 89.02 4.07
-3 8 7 76.42 3.44
-3 8 7 85.79 4.58
-4 10 4 59.62 2.98
4 10 -4 57.24 3.64
-4 -10 4 52.52 3.04
4 10 -4 56.84 3.16
-4 -10 4 54.81 3.57
-4 10 4 57.68 3.46
-4 10 4 52.76 4.61
4 -10 -4 52.12 3.26
-5 -7 0 3.4 1.42
5 7 0 4.09 1.27
5 7 0 3.91 1.53
-5 -7 0 3.32 1.45
-5 7 0 2.98 1.19
-2 0 9 0.17 0.1
-2 0 9 0.78 0.55
-2 0 9 0.33 0.34
-1 0 9 51.75 3.32
-1 0 9 52.12 2.96
5 7 -4 1.09 0.51
-5 -7 4 1.74 0.93
-5 7 4 0.44 0.5
-5 7 4 0.6 0.72
5 7 -4 0.79 0.45
5 7 -4 0.58 0.23
-5 -7 4 0.8 0.74
4 0 -8 436.21 15.82
-4 0 8 461.2 17.1
-4 0 8 452.39 16.84
-4 9 -2 9 2.65
4 9 2 11.2 3.18
4 9 2 9.22 2.43
-5 4 -2 12.92 4.91
-5 -4 -2 9.98 2.64
5 4 2 16.89 4.06
5 6 1 18.93 2.44
-5 -6 -1 19.17 2.58
-5 6 -1 20.42 3.35
-2 1 9 30.02 3.65
-2 -1 9 30.49 2.7
-2 1 9 33.84 2.4
-2 1 9 29.56 1.99
-2 -1 9 32.64 2.73
2 1 -9 26.17 2.23
-1 -1 9 12.57 1.81
-1 1 9 11.94 1.65
-1 -1 9 10.44 0.77
-1 1 9 14.1 3.88
1 14 2 26.13 4.74
1 -14 2 24.8 1.46
1 -14 2 27.17 1.58
1 -14 2 23.36 2.36
1 14 2 25.1 1.72
-1 14 -2 25.02 1.9
-1 14 -2 29.17 2.65
1 14 2 30.57 2.54
0 -6 8 18.17 2.79
0 6 8 16.91 2.93
0 6 8 20.57 2.45
0 -6 8 15.77 2.1
4 -1 -8 56.08 3.31
-4 -1 8 61.73 3.48
-4 1 8 65.82 4.47
4 1 -8 64.52 2.58
-4 1 8 68.21 3.49
-4 -1 8 62.75 5.06
4 -1 -8 62.35 4.17
4 1 -8 61.62 2.94
-3 -11 5 95.33 5.47
-3 -11 5 81.7 3.23
-3 -11 5 82.89 3.46
3 11 -5 96.86 4.02
-3 11 5 92.06 3.81
-3 11 5 90.71 4.82
-3 11 5 97.54 4.54
-5 6 5 13.51 3.43
-5 -6 5 13.3 3.6
-5 6 5 13.09 4.68
-5 -6 5 13.41 2.16
5 6 -5 14.37 1.33
5 6 -5 11.54 2.32
-5 4 6 298.01 11.4
-5 4 6 306.96 11.85
-5 -4 6 295.69 11.23
-5 -4 6 305.1 11.52
4 10 1 1.15 0.82
-4 10 -1 -0.26 0.75
4 10 1 0.97 1.03
4 10 1 0.18 0.15
-2 -12 5 39.47 2.32
-2 12 5 42.03 2.64
-2 12 5 44.62 3.41
-2 12 5 43.68 4.37
-2 -12 5 44.03 2.76
-2 -12 5 37.5 2.58
-2 -12 5 39.79 2.32
2 12 -5 49.15 4.54
-2 12 5 34.05 3.1
3 4 6 4.36 2.61
3 4 6 8.04 2
3 -4 6 5.19 1.84
-4 8 6 8.75 3.14
-4 -8 6 7.04 1.21
-4 8 6 8.34 3.11
4 8 -6 7.21 1.7
-4 -8 6 6.47 1.91
-4 8 6 6.28 1.79
4 6 -7 32.11 2.28
-4 6 7 35.26 3.4
-4 -6 7 33.81 2.51
-4 6 7 34.25 2.57
-4 -6 7 34.04 3.39
-1 -7 8 160.85 5.92
-1 -7 8 176.82 6.86
-1 -7 8 194.04 8.11
-1 7 8 187.58 9.16
-1 7 8 187.82 7.49
2 8 6 58.34 4.24
2 8 6 59.38 2.77
0 9 7 46.17 4.43
0 9 7 42.53 3.2
0 -9 7 41.47 2.69
0 -9 7 37.26 2.5
-2 10 -5 166.46 7.26
2 10 5 175.73 8.07
2 10 5 184.96 7.41
-5 -8 2 76.57 4.02
-5 8 2 83.5 3.63
5 8 -2 79.07 3.56
5 8 -2 72.76 3.47
-5 8 2 77.74 3.37
5 8 -2 77.15 3.24
-5 -8 2 80.46 2.97
-2 14 1 19.22 1.37
-2 -14 1 17.1 2.05
-2 14 1 19.96 2.37
-2 -14 1 19.74 1.12
2 14 -1 20.11 1.56
2 14 -1 18.87 2.9
2 14 -1 21.81 2.31
-2 -2 9 19.89 1.56
-2 2 9 20.89 2.64
-2 2 9 21.4 3.49
-2 -2 9 23.26 4.62
-2 2 9 19.82 1.42
2 2 -9 18.46 1.64
-1 2 9 11.71 1.56
-1 -2 9 9.93 0.96
-1 -2 9 11.98 1.6
-1 -2 9 13.83 3.58
-1 2 9 14.87 3.97
1 14 -3 0.63 0.66
-1 14 3 2.21 0.99
-1 -14 3 1.44 0.43
-1 14 3 0.62 0.2
-1 -14 3 2.16 0.46
-1 14 3 1.2 0.57
0 14 -3 1.83 1.67
0 14 3 1.26 0.41
0 -14 3 1.82 0.68
0 14 3 2.85 0.88
0 14 3 4.37 1.09
0 14 3 1.97 0.94
0 -14 3 1.74 0.69
0 14 3 1.43 0.49
4 -11 -2 0.12 0.36
-4 -11 2 0.35 0.68
4 11 -2 2.42 1.31
4 11 -2 0.29 0.32
-4 11 2 0.76 0.97
-4 11 2 0.27 0.35
-4 -11 2 0.27 0.28
-4 -11 2 0.09 0.27
-4 2 8 0.96 0.8
-4 2 8 0.3 0.54
4 2 -8 0.3 0.19
4 -2 -8 0.55 0.46
-4 -2 8 0.44 0.75
-4 -2 8 0.99 1.41
-2 7 8 24.37 4.45
-2 -7 8 15.81 1.19
-2 7 8 20.61 2.8
-2 -7 8 21.37 3.51
-2 7 8 23.55 3.05
4 11 -1 73.72 2.57
-4 -11 1 73.53 2.9
4 -11 -1 71.76 2.75
4 11 -1 81.15 3.01
-4 11 1 83.18 3.46
4 11 -1 78.9 4.2
-4 -11 1 79.55 3.93
-4 -11 1 77.36 2.76
-3 10 6 10.62 1.35
-3 -10 6 9.87 1.75
-3 10 6 10.45 3.24
-3 10 6 9.61 1.97
-3 -10 6 8.23 1.59
3 10 -6 9.8 2.49
2 14 0 90.56 4.04
-2 14 0 86.18 3.7
2 14 0 84.78 2.96
2 14 0 101.9 4.53
-2 14 0 94.31 4.47
1 10 6 74.74 3.82
1 10 6 74.23 3.73
-3 -12 4 1.01 0.28
-3 12 4 1.88 0.93
-3 12 4 0.65 1.08
3 12 -4 1.98 1.09
-3 -12 4 1.54 1.31
-3 12 4 0.83 0.51
-3 -12 4 1.12 0.34
2 5 7 43.43 2.83
2 -5 7 39.36 2.66
2 5 7 35.67 3.67
2 13 -4 9.3 2.11
-2 -13 4 7.09 1.08
-2 -13 4 7.5 1.46
-2 13 4 6.75 2.92
-2 13 4 7.37 0.87
-2 13 4 7.59 3.27
-2 -11 6 0.48 0.49
2 11 -6 0.23 0.43
-2 11 6 0.93 0.58
-2 11 6 0.78 0.94
-2 -11 6 0.66 0.19
-2 11 6 0.75 0.44
-2 -11 6 0.41 0.54
-2 11 6 1.76 1.05
1 4 8 5.21 1.83
1 4 8 7.16 2.07
1 -4 8 4.96 1.89
-5 8 1 11.25 3.59
-5 8 1 9.52 1.79
-5 -8 1 12.32 3.18
5 8 -1 12.65 3.15
5 8 -1 6.32 1.48
-5 -8 1 8.36 1.96
5 8 -1 10.79 1.83
0 11 6 73.31 3.8
0 -11 6 63.44 2.55
0 -11 6 71.31 3.02
0 11 6 72.49 4.32
0 -11 6 57.68 2.61
5 8 -3 24.03 1.59
-5 -8 3 22.67 3.11
5 8 -3 23.38 1.34
-5 8 3 32.65 1.83
-5 -8 3 23.21 1.37
5 8 -3 17.99 2.57
-5 8 3 21.39 1.69
4 0 5 1.47 0.6
-4 0 -5 0.42 0.56
-4 8 -3 7.58 2.72
4 8 3 7.91 2.39
4 8 3 7.95 2.45
-3 6 8 6.35 1.56
3 -6 -8 5.76 1.59
-3 6 8 4.38 1.47
-3 6 8 6.63 2.26
-3 -6 8 6 1.69
0 15 0 0.07 0.25
0 15 0 1.02 0.87
2 14 -2 2.29 0.88
2 14 -2 0.99 0.51
-2 -14 2 1.48 0.45
-2 14 2 1.76 0.78
-2 14 2 1.83 1.42
-2 -14 2 0.82 0.4
4 1 5 15.63 3.04
-4 1 -5 13.96 3.91
4 -1 5 13.84 4.17
4 6 4 25.97 4.06
-4 6 -4 20.63 2.98
4 6 4 23.43 1.9
3 13 -1 0.55 0.75
3 -13 -1 0.03 0.26
-3 -13 1 0.15 0.19
-3 13 1 0 0.49
-3 13 1 0.7 0.66
3 13 -1 0.13 0.16
3 13 -1 0.19 0.45
-3 -13 1 0.54 0.42
2 -3 -9 0.24 0.3
-2 -3 9 0.93 0.61
-2 3 9 0.76 0.84
-2 3 9 0.49 0.95
-2 -3 9 0.65 0.33
2 3 -9 0.86 0.23
-2 3 9 0.14 0.35
1 -8 7 24.44 1.67
1 -8 7 27.26 3.12
1 8 7 31.12 3.52
1 8 7 31.37 2.8
-6 0 2 0.16 0.58
-6 0 2 0.77 0.78
-1 -3 9 18.41 0.81
-1 3 9 20.73 3.45
-1 -3 9 20.02 2.22
-1 3 9 23.09 1.57
-1 -3 9 22.74 2.09
-1 -3 9 16.53 0.68
-4 3 8 216.63 7.5
-4 3 8 218.74 7.64
4 3 -8 202.9 6.17
-4 -3 8 222.4 7.57
4 3 -8 216.83 6.92
-4 -3 8 215.92 7.46
4 3 -8 209.58 6.33
4 -3 -8 203.88 6.63
-4 11 3 9.2 1.4
4 -11 -3 8.63 1.08
-4 11 3 8.28 1.39
-4 -11 3 8.07 1.15
4 11 -3 9.49 3.09
4 11 -3 8.19 1.78
-4 -11 3 6.67 2.63
-6 0 3 0.73 0.87
-6 0 3 0.16 0.86
5 5 2 40 3.88
-5 -5 -2 40.04 3.4
-5 5 -2 39.35 3.58
-3 -13 2 2.68 0.64
-3 13 2 1.49 1.91
-3 -13 2 1.55 0.66
3 13 -2 2.12 0.59
-3 13 2 2.25 0.74
3 13 -2 3.2 1.26
-3 13 2 1.82 0.91
3 13 -2 1.23 0.48
3 -13 -2 1.9 0.49
-6 1 2 35.56 3.94
-6 1 2 33.53 2.14
-6 -1 2 37.31 4.78
-6 -1 2 34.19 2.32
3 11 3 122.65 4.16
-3 11 -3 141.94 5.27
3 11 3 141.97 5.95
3 11 3 145.47 7.29
0 15 -1 227.27 6.91
0 15 1 238.18 9.29
0 15 -1 231.86 8.36
0 15 1 229.77 7.15
5 0 3 103.31 6.12
-5 0 -3 100.5 4.23
-5 5 6 15.54 3.02
-5 -5 6 16.25 2.51
5 5 -6 12.06 1.31
-5 5 6 16.73 3.3
-5 -5 6 17.7 2.64
-6 1 3 78.29 3.73
-6 1 3 66.74 2.97
-6 -1 3 73.09 4.51
-6 -1 3 77.32 3.73
4 11 0 117.58 4.76
-4 -11 0 112.71 4.16
4 11 0 110.06 4.03
-4 11 0 114.02 4.41
4 -11 0 102.56 3.69
4 11 0 105.3 3.54
-5 -1 -3 99.79 4.24
-5 1 -3 99.23 5.85
5 -1 3 98.24 4.14
5 1 3 102.57 4.43
5 0 -7 4.01 1.22
-5 0 7 4.73 2.16
-5 0 7 6.54 2.58
5 0 -7 2.63 1.11
3 5 6 7.18 2.63
3 -5 6 8.81 2.55
3 5 6 8.68 2.36
3 12 2 186.43 5.96
3 12 2 202.29 6.96
-3 12 -2 185.69 6.53
3 12 2 194.33 8.83
3 -12 2 171.21 5.56
3 13 0 4.59 0.54
3 13 0 6.93 2.29
3 13 0 2.92 1.29
3 13 0 3.9 1.56
-3 13 0 5.36 1.21
3 -13 0 3.41 0.71
-3 13 0 6.45 2.34
3 8 5 40.17 2.69
3 8 5 34.24 3.59
-3 8 -5 31.23 3.28
-5 1 7 251.55 8.47
-5 1 7 233.24 7.91
-5 -1 7 243.58 8.27
-5 -1 7 235.8 7.97
5 1 -7 224.88 7.52
5 -1 -7 232.32 7.83
5 1 -7 226.72 7.2
2 14 1 62.03 2.09
2 14 1 69.7 3.91
-2 14 -1 61.38 2.41
2 14 1 70.83 3.48
2 -14 1 64.53 2.14
2 14 1 59.43 2.5
-2 14 -1 63.95 4.03
1 13 4 21.63 2.64
1 13 4 23.4 2.2
-1 13 -4 18.55 4.08
1 -13 4 16.63 1.88
-6 2 2 1.53 0.51
-6 2 2 0.82 0.83
-6 -2 2 1.39 0.7
-6 -2 2 1.06 1.09
-3 0 9 72.65 3.28
-3 0 9 68.62 3.46
-1 10 7 71.3 4.04
-1 -10 7 61.29 2.53
-1 10 7 64.82 3.2
-1 -10 7 70.48 3.02
-1 -10 7 66.17 3.08
-1 10 7 72.43 5.03
-6 2 3 24.17 2.84
-6 -2 3 22.47 3.03
-6 -2 3 25.04 2.84
-6 2 3 24.91 3.3
0 0 9 0.22 0.18
0 0 9 0.14 0.29
-5 -7 -1 114.19 4.31
-5 7 -1 115.36 6.11
5 7 1 114.72 5.04
5 7 1 119.01 5.05
-6 0 1 0.74 0.8
-6 0 1 0.65 0.61
1 15 0 31.96 2.17
1 15 0 31.77 4.64
1 15 0 29.63 1.25
1 15 0 32.54 1.19
-1 15 0 32.01 1.63
-1 15 0 29.78 2.27
0 -7 8 13.9 1.54
0 -7 8 17.22 2.14
0 7 8 17.36 1.9
0 7 8 19.34 3.46
3 -1 -9 59.99 2.16
-3 -1 9 53.09 4.01
-3 1 9 60.88 3.53
-3 1 9 55.31 5.02
3 1 -9 55.4 3.38
-3 -1 9 56.73 2.66
5 2 3 1.33 1.06
5 -2 3 2.02 1.05
-5 2 -3 -0.22 0.88
-5 -2 -3 0.2 0.59
5 7 -5 209.88 6.95
-5 -7 5 222.99 7.56
-5 7 5 211.52 7.01
-5 7 5 212.21 7.63
5 7 -5 217.59 6.92
-5 -7 5 226.9 7.42
-5 -8 0 1.35 1.02
-5 8 0 0.71 0.67
5 8 0 0.62 0.79
5 8 0 2.16 1.17
-5 -8 0 0.76 0.52
0 1 9 6.28 1.61
0 -1 9 6.32 1.14
0 1 9 7.11 1.92
0 -1 9 7.13 2.41
-1 15 1 118.04 6.06
1 15 -1 125.52 5.72
-1 15 1 119.6 4.13
-6 1 1 19.56 4.31
-6 -1 1 29.27 2.87
-6 1 1 22.81 2.09
-6 -1 1 21.62 2.44
1 -5 8 9.11 2.12
1 5 8 9.66 2.73
1 5 8 10.75 3.5
-5 8 4 196.23 6.98
-5 -8 4 194.12 7.34
5 8 -4 194.03 6.26
5 8 -4 197.04 7.26
-5 8 4 195.11 6.51
-5 -8 4 201.76 6.88
5 -2 -7 1.06 0.38
-5 2 7 0.22 0.73
-5 -2 7 0.46 1.05
-5 2 7 1.44 1.19
-5 -2 7 0.51 0.54
5 2 -7 0.33 0.33
-4 7 7 0.65 1.14
-4 -7 7 0.09 0.29
4 7 -7 1.08 0.41
-4 7 7 1.34 0.93
-4 -7 7 0.44 0.7
-4 7 7 1.22 0.96
4 3 5 16.77 3.51
-4 3 -5 15.17 5.68
4 -3 5 17.59 2.63
3 10 4 38.41 2.42
3 10 4 45.47 5.09
-3 10 -4 35.88 2.6
1 12 5 0.44 0.83
1 12 5 0.71 0.57
-2 -4 9 2.11 0.79
2 4 -9 2.69 0.74
-2 4 9 3.32 1.4
-2 4 9 2.57 0.63
2 -4 -9 1.86 0.5
-2 -4 9 1.62 1.08
-2 4 9 3.53 1.79
1 4 -9 6.52 1.81
-1 4 9 8.3 2.26
-1 -4 9 8.11 1.87
-1 4 9 10.34 2.42
-1 -4 9 8.37 2.47
-6 0 4 281.95 9.39
-6 0 4 285.91 9.55
-4 -10 5 14.74 1.73
-4 10 5 13.25 1.79
-4 10 5 17.83 1.65
4 10 -5 13.16 2.03
-4 -10 5 16.49 4.52
-4 10 5 15.27 4.72
-3 9 7 8.75 2.26
3 9 -7 5.37 1.68
-3 9 7 7.18 1.54
-3 9 7 8.29 2.04
-3 -9 7 7.56 3.2
-3 9 7 9.49 3.67
4 4 -8 12.64 1.01
4 4 -8 13.4 1.6
4 4 -8 14.14 0.98
-4 -4 8 13.49 2.49
-4 4 8 22.5 2.4
-4 -4 8 12.12 1.71
4 -4 -8 12.03 2.07
-4 4 8 16.59 4.72
2 -6 7 21.98 2.77
2 6 7 24.94 3.71
2 6 7 22.05 2.77
-6 -1 4 94.21 4.02
-6 1 4 89.35 5.66
-6 -1 4 86.86 5.4
-6 1 4 88.93 5.79
2 12 4 21.75 2.22
-2 12 -4 19.32 2.62
2 12 4 24.94 3.1
3 2 -9 95.84 3.51
-3 -2 9 99.11 3.51
-3 -2 9 108.09 4.56
-3 2 9 113.37 5.43
-3 2 9 100.72 3.9
3 -2 -9 101.08 3.36
3 -13 -3 155.6 5.05
3 13 -3 173.2 6.13
-3 13 3 165.58 6.86
3 13 -3 169.39 5.45
-3 13 3 166.62 5.31
-3 -13 3 159.22 5.27
-3 13 3 168.12 6.1
-3 -13 3 166.51 5.48
-2 14 3 2.37 0.71
-2 14 3 3.5 1.53
2 14 -3 2.01 1.1
-2 14 3 1.33 0.45
-2 -14 3 2.19 0.48
2 14 -3 1.6 0.59
-2 -14 3 1.94 0.7
-2 -10 7 15.5 0.98
-2 10 7 16.92 1.57
2 10 -7 14.11 1.88
-2 -10 7 13.55 1.62
-2 10 7 13.95 2.24
-2 10 7 17.68 2.46
-2 -10 7 18.97 2.98
-2 13 -3 4.11 1.53
2 13 3 3.54 1.08
2 13 3 3.84 1.08
2 13 3 7.27 2.07
2 13 3 6.72 2.16
1 14 3 19.54 2.05
-1 14 -3 18.02 4.01
1 14 3 24.63 5.73
1 14 3 18.43 1.81
1 -14 3 17.5 1.15
1 -14 3 17.91 1.5
-1 14 -3 18.58 1.3
0 -2 9 25.04 1.97
0 -2 9 21.16 1.47
0 2 9 24.67 2.21
0 2 9 22.54 3.34
-1 -8 8 40.79 2.72
-1 8 8 38.98 3.61
-1 -8 8 30.16 1.66
-1 -8 8 38.64 2.26
-1 8 8 35.02 2.05
-1 8 8 43.81 3.08
-6 -3 2 183.15 6.72
-6 3 2 177.96 7.51
-6 -3 2 169.87 6.69
6 3 -2 187.6 7.48
-6 3 2 176.33 6.32
-6 2 1 7.23 2.12
-6 -2 1 9.31 2.79
-6 2 1 8.26 2.59
-6 -2 1 12.13 3.84
6 2 -1 9.33 2.8
-1 13 5 26.23 4.08
-1 -13 5 25.82 2.08
-1 13 5 23.35 1.25
-1 -13 5 23.37 1.2
1 13 -5 21.61 3.87
-1 -13 5 18.46 2.23
-1 13 5 24.74 2.3
-6 3 3 59.03 4.95
-6 3 3 59.61 3.23
-6 -3 3 61.92 3.48
-6 -3 3 60.47 2.87
0 -15 2 60.13 1.89
0 15 2 69.62 4
0 15 2 64.25 2.57
0 15 -2 59.2 2.17
0 15 -2 63.92 5.28
0 15 2 66.16 3.41
1 -15 1 16.48 1.13
1 15 1 16.9 0.81
1 15 1 16.66 1.61
-1 15 -1 17.25 1.15
1 15 1 17.29 1.68
-1 15 -1 18.49 2.67
1 15 1 20.3 3.23
-5 -3 -3 167.13 6.43
5 3 3 166.64 7.99
-5 3 -3 171.1 6.57
-4 9 6 254.88 8.46
-4 -9 6 258.63 8.56
-4 9 6 268.18 9.96
-4 -9 6 246.02 7.8
4 9 -6 265.87 8.34
-4 9 6 262.48 8.94
4 10 2 43.87 2.15
-4 10 -2 43.06 1.78
4 10 2 43.74 2.73
-2 8 8 10.91 3.32
-2 8 8 13.18 3.19
-2 -8 8 11.18 2.99
-2 -8 8 9.7 0.86
-2 8 8 12.45 3.36
-6 2 4 23.38 3.75
-6 -2 4 28.79 4.01
-6 -2 4 25.58 3.73
-6 2 4 24.45 3.8
2 9 6 7.51 2.26
2 9 6 7.62 1.97
-5 3 7 15.41 4.58
5 3 -7 10.14 1.53
-5 3 7 15.02 3.08
-5 -3 7 13.65 2.44
-5 -3 7 13.49 2.28
-3 -7 8 25.58 5.3
-3 7 8 23.55 5.43
-3 7 8 22.7 3.8
-3 7 8 19.27 3.45
-5 9 2 16.3 2
5 9 -2 11.74 2.19
-5 -9 2 17.75 1.81
-5 9 2 21.2 4.29
5 9 -2 17.27 1.85
5 9 -2 19.15 1.42
-5 -9 2 17.34 2.32
-4 11 4 57.54 2.79
-4 -11 4 53.18 3.15
-4 11 4 50.21 2.06
4 -11 -4 45.12 2.17
-4 -11 4 51.78 2.02
-4 11 4 55.45 4.82
4 11 -4 52.97 2.48
-5 6 -2 10.24 3.21
-5 -6 -2 10.59 1.72
5 6 2 10.23 2.26
4 7 4 228.11 9.67
-4 7 -4 230.41 8.55
4 7 4 235.65 10.02
-1 15 2 329.13 10.28
-1 15 2 335.41 11.39
-1 -15 2 313.33 9.47
1 15 -2 358.2 12.18
-5 -6 6 29 5.02
-5 6 6 28.55 2.82
5 6 -6 27.47 1.53
5 6 -6 23.28 1.32
5 6 -6 24.45 1.86
-5 -6 6 25.32 1.65
-5 6 6 26.36 2.99
3 13 1 30.43 2.53
-3 13 -1 26.52 1.7
3 13 1 26.24 1.45
3 -13 1 24.52 1.87
3 13 1 25.88 1.61
3 13 1 31.12 2.11
-1 14 4 17.68 4.79
1 14 -4 18.32 2.95
-1 14 4 18.7 1.76
-1 -14 4 15.45 0.71
-1 14 4 14.21 1.38
-1 -14 4 17.06 1.79
-1 14 4 16.61 1.08
-1 -14 4 15.47 1.97
-3 -3 9 8.15 2.05
3 -3 -9 7.54 1.12
-3 3 9 9.57 2.9
-3 -3 9 4.59 1.62
-3 3 9 8.52 1.34
3 3 -9 6.59 1.54
-3 3 9 6.42 1.9
0 -10 7 41.08 2.68
0 -10 7 43.79 2.87
0 10 7 47.92 2.85
0 -10 7 45.19 3.6
0 10 7 53.59 3.2
1 12 -6 17.79 3.19
-1 -12 6 19.21 2.66
-1 -12 6 16.55 1.07
-1 -12 6 14.61 1.69
-1 12 6 18.48 2.21
-1 12 6 18.22 2.9
-1 12 6 22.84 2.94
3 -6 6 158.17 6.8
3 6 6 155.2 6.57
3 6 6 163.26 7
0 -3 9 4.68 1.17
0 -3 9 4.6 1.13
0 3 9 5.68 1.36
0 3 9 5.38 1.25
4 4 5 223.54 8.65
-4 4 -5 220.66 7.87
4 -4 5 229.7 8.56
0 -13 5 64.77 3.09
0 13 -5 64.22 3.49
0 13 5 69.99 4.35
0 -13 5 59.68 2.61
0 13 5 69.61 4.07
-6 -3 1 18.51 2.33
-6 3 1 15.01 3.04
-6 3 1 14.05 4.31
-6 -3 1 16.6 3.4
6 3 -1 14.96 1.75
-4 11 -1 0.07 0.46
4 11 1 1.12 0.63
4 11 1 1.2 0.74
4 11 1 0.08 0.18
-5 -9 1 7.26 2.57
5 9 -1 7.35 2.04
-5 9 1 6.28 0.89
5 9 -1 6.32 2.01
-5 9 1 5.8 2.4
5 9 -1 4.44 1.52
-5 -9 1 5.73 1.24
5 9 -3 76.14 3.47
-5 -9 3 89.23 3.62
5 9 -3 85.65 3.44
-5 9 3 86.27 4.99
-5 -9 3 87.76 3.18
5 9 -3 79.85 3.51
-5 9 3 84 3.21
-4 9 -3 -0.22 0.75
4 9 3 1.68 1.42
4 9 3 0.21 0.54
0 14 4 0.66 0.66
0 -14 4 0.17 0.24
0 14 -4 0.02 0.62
0 14 4 0.71 0.6
0 -14 4 0.03 0.29
0 -14 4 0.02 0.33
2 11 5 219.98 9.89
-2 11 -5 194.22 16.14
2 11 5 228.18 7.88
3 12 -5 78.24 3.21
-3 12 5 74.09 4.35
-3 -12 5 76.95 3.77
-3 12 5 83.17 3.99
-3 -12 5 70.54 2.35
-3 12 5 76.02 2.76
-6 0 0 32.66 4.02
-6 0 0 29.19 3.49
-2 5 9 129.49 5.56
2 -5 -9 114.88 4.36
-2 5 9 125.14 4.52
-2 -5 9 132.4 4.35
-2 5 9 135.17 5.86
-2 -5 9 122.32 4.77
-6 -4 2 184.16 7.01
-6 4 2 191.38 6.78
-6 4 2 182.72 6.5
-6 -4 2 183.3 6.53
6 4 -2 191.06 6.83
-1 5 9 22.49 4.54
-1 -5 9 19.8 3.81
1 -5 -9 14.53 1.9
-1 5 9 17.43 2.58
-1 -5 9 16.05 2.21
-6 3 4 160.94 5.77
-6 -3 4 161.05 5.87
-6 3 4 157.34 6.25
-6 -3 4 157.34 6.35
-4 5 8 0.94 0.78
-4 5 8 3.93 1.65
4 5 -8 1.58 0.56
4 -5 -8 1.47 0.57
-4 -5 8 2.54 1.21
-4 -5 8 4.18 1.22
4 5 -8 3.19 0.6
-6 4 3 375.17 12.14
-6 -4 3 374.77 12.1
-6 4 3 365.9 12.26
-6 -4 3 370.77 12.34
6 4 -3 344.64 11.27
-6 -1 0 7.63 2.93
-6 1 0 7.88 2.01
-6 -1 0 7.15 2.47
-6 1 0 9.49 3.6
6 1 0 7.13 1.67
2 14 2 0.32 0.28
2 14 2 0.08 0.72
2 -14 2 0.67 0.55
-2 14 -2 0.27 0.38
2 14 2 0.02 0.78
-2 14 -2 0.51 0.69
2 14 2 0.1 0.29
1 9 7 41.78 2.78
1 -9 7 34.75 2.04
1 9 7 41.59 2.65
1 6 8 8.31 2.28
1 -6 8 4.55 2.97
1 6 8 6.29 2.21
1 -6 8 2.74 1.38
3 11 -6 75.07 3.48
-3 11 6 65.57 6.03
-3 -11 6 73.67 3.13
-3 11 6 79.11 3.7
-3 -11 6 69 2.96
-3 -11 6 69.26 2.64
-3 11 6 73.23 3.26
-5 4 -3 1.63 0.58
-5 -4 -3 2.69 1.25
5 4 3 1.83 1.09
1 11 6 30.69 2.37
1 11 6 24.88 3.27
-2 -13 5 0.07 0.12
-2 13 5 1.43 0.64
-2 13 5 0.66 0.44
2 13 -5 0.43 0.5
-2 13 5 0.9 0.9
-2 -13 5 1.39 0.59
-2 -13 5 0.63 0.34
5 4 -7 54.5 2.23
-5 -4 7 59.55 2.87
-5 -4 7 53.35 2.68
-5 4 7 53.38 4.29
-5 4 7 51.01 3.78
-4 12 2 18.67 1.45
-4 -12 2 19.81 3.2
4 12 -2 14.21 1.18
4 -12 -2 15.05 1.21
4 12 -2 15.97 2.8
4 12 -2 21.65 1.71
-4 -12 2 16.65 1.26
-4 -12 2 15.64 1.09
-4 12 2 17.09 1.89
4 12 -1 1.65 0.71
4 -12 -1 1.69 0.82
4 12 -1 2.13 0.88
-4 -12 1 1.91 0.98
-4 -12 1 1.11 0.53
4 12 -1 2.04 0.54
-4 12 1 0.93 0.93
-6 0 5 -0.25 0.96
-6 0 5 -0.06 0.8
2 0 8 18.26 3.43
-6 -2 0 0.63 0.6
-6 2 0 0.61 0.51
6 2 0 0.53 0.8
-6 2 0 0.33 0.4
-6 -2 0 0.35 0.57
5 8 1 221.87 7.76
-5 8 -1 217.55 7.67
5 8 1 225.4 7.59
-5 -8 -1 213.63 7.94
-2 -12 6 6.57 0.75
-2 -12 6 6.11 1.7
2 12 -6 7.71 1.45
-2 -12 6 6.34 0.76
-2 12 6 6.85 1.06
-2 12 6 9.05 3.3
-2 12 6 6.98 2.21
-2 -12 6 6.21 1.76
-2 12 6 9.25 3.36
0 -8 8 33.27 2.43
0 8 8 37.86 3.51
0 -8 8 33.95 2.12
0 8 8 33.88 3.26
-3 4 9 70.73 3.26
-3 -4 9 74.85 4.3
-3 4 9 65.62 3.32
3 -4 -9 63.08 3.17
-3 4 9 65.41 3.39
3 4 -9 63.37 3.15
-3 -4 9 60.56 2.59
-6 1 5 86.46 3.78
-6 -1 5 87.89 4.66
-6 -1 5 90.31 3.77
-6 1 5 88.32 6.28
0 -12 6 10.59 2.22
0 12 6 13.57 2.56
0 -12 6 7.39 1.13
0 12 6 15.56 3.73
2 -1 8 6.45 2.34
2 1 8 4.07 1.17
2 1 8 4.53 1.5
3 9 5 91.27 4.37
3 9 5 95.79 5.22
-3 9 -5 88.01 3.83
-5 8 5 143.17 5.47
5 8 -5 138.61 4.33
5 8 -5 135.92 4.97
-5 8 5 135.67 4.78
-5 -8 5 140.19 5.6
-5 -8 5 133.56 4.75
0 4 9 87.52 4.1
0 4 9 82.29 3.42
0 -4 9 83.53 3.98
2 7 7 5.38 1.2
2 7 7 5.5 1.37
2 -7 7 5.93 1.7
-6 -4 1 239.62 8.22
6 4 -1 235.95 8.05
-6 4 1 241.53 8.58
-6 -4 1 238.74 9.13
-6 4 1 242.32 8.81
1 15 2 155.78 6.78
1 -15 2 146.9 4.44
1 -15 2 149.94 4.93
1 15 2 163.74 7.59
1 15 2 150.14 4.66
1 15 2 161.76 5.18
-1 15 -2 157.33 5.12
-1 15 -2 152.56 6.89
3 0 7 814.7 9.23
-3 -13 4 1.1 0.36
-3 -13 4 0.54 0.36
-3 13 4 1.42 0.49
-3 13 4 2.23 0.99
-3 13 4 1.29 0.8
3 13 -4 0.77 0.65
-4 8 7 130.16 4.78
-4 -8 7 124.29 4.72
-4 -8 7 113.63 4.1
-4 8 7 128.5 5.23
-4 8 7 130.72 5.82
4 8 -7 125.1 4.1
3 -1 7 90.45 4.38
3 1 7 92.32 5.94
-5 -9 0 8.24 2.73
5 9 0 8.02 2.36
-5 9 0 7.22 2.05
5 9 0 8.09 2.29
-5 -9 0 7.44 1.6
4 -5 5 43.86 4.9
-4 5 -5 42.18 2.97
4 5 5 47.51 3.89
4 5 5 48.39 3.25
-6 -4 4 46.17 2.46
-6 4 4 46.69 3.06
-6 -4 4 45.38 3.01
-6 4 4 41.54 3.29
-5 -9 4 0.48 1.05
5 9 -4 0.99 0.7
5 9 -4 0.92 0.39
-5 9 4 0.36 0.57
-5 -9 4 0.96 0.53
-5 9 4 1.06 0.78
-6 -2 5 33.29 2.71
-6 2 5 36.97 3.67
-6 -2 5 37.81 4.11
-6 2 5 33.87 2.49
2 2 8 18.5 4.74
2 -2 8 16.96 4.85
2 2 8 12.13 2.62
4 12 -3 513.29 3.8
-4 -12 3 439.96 13.29
-4 12 3 464.25 14.33
-4 -12 3 489.54 5.25
4 -12 -3 456.25 13.98
4 12 -3 500.76 5.78
-4 12 3 467.56 16.82
-4 12 3 486.15 6.54
-4 -12 3 463.75 13.9
-2 15 1 20.77 3.95
-2 -15 1 22.22 1.23
-2 15 1 22.03 1.85
2 15 -1 20.79 4.1
2 15 -1 25.71 2.54
2 15 -1 20.76 2.36
-2 14 4 12.92 1.5
-2 14 4 11.95 1.13
-2 -14 4 13.09 1.48
-2 -14 4 12.34 1.65
-2 14 4 14.08 2.15
2 14 -4 14.45 3.17
3 12 3 3.1 1.31
3 12 3 5.38 2.96
3 12 3 9.49 2.56
3 -12 3 2.12 1.14
-3 12 -3 5.28 2.98
-1 -15 3 3.76 1.04
-1 15 3 3.59 1.29
-1 -15 3 1.93 0.77
-1 15 3 5.2 2.01
1 15 -3 3.83 1.48
0 15 -3 58.38 3.42
0 15 3 62.39 2.55
0 15 3 65.19 3.58
0 -15 3 58.74 2.04
0 15 3 60.02 2.1
0 15 3 56.8 1.9
0 -15 3 60.67 2.1
0 15 3 60.87 3.39
6 3 0 8.39 2.08
-6 -3 0 6.4 2.23
-6 3 0 5.22 1.77
-6 3 0 7.18 2.67
-6 -3 0 8.1 2.57
-5 7 -2 87.85 5.76
5 7 2 86.03 4.69
5 7 2 84.16 4.23
-5 -7 -2 85.86 3.66
-6 5 2 1.56 1.33
-6 5 2 0.53 0.57
6 5 -2 2.35 1.13
-6 -5 2 2.59 1.19
-6 -5 2 3.2 1.14
-4 -12 0 57.55 4.12
4 12 0 52.14 2.39
4 12 0 60.5 3.41
-4 12 0 57.22 2.84
4 12 0 57.87 4.07
4 -12 0 51.45 2.07
-1 11 7 6.91 2.33
-1 -11 7 2.94 1.51
-1 11 7 4.9 1.8
-1 -11 7 3.47 1.25
-1 -11 7 3.56 0.94
-1 11 7 4.94 1.12
-1 -11 7 4.82 0.99
2 15 0 0.11 0.49
2 -15 0 0.13 0.25
-2 15 0 -0.77 1.18
2 15 0 0.02 0.25
-2 15 0 -0.02 0.46
2 15 0 0.36 0.6
3 -2 7 60.87 3.17
3 2 7 62.4 4.06
5 7 -6 6.96 2.25
-5 -7 6 7.32 1.72
5 7 -6 4.77 0.8
-5 7 6 5.64 1.88
-5 -7 6 7.28 2.2
-5 7 6 6.74 2.16
-6 -5 3 2.13 1.29
6 5 -3 3.65 1.22
-6 5 3 2.94 1.55
-6 5 3 3.42 1.37
-6 -5 3 3.44 1.07
-1 9 8 24.57 2.19
-1 -9 8 22.43 1.65
-1 -9 8 22.44 1.8
-1 -9 8 24.65 4.16
-1 9 8 25.34 2.5
-1 9 8 24.12 4.02
3 14 -1 7.38 1.85
3 -14 -1 8.21 0.95
-3 -14 1 15.36 1.01
3 14 -1 10.13 2.3
-3 14 1 8.05 1.44
-3 14 1 8.21 3.92
3 14 -1 9.7 2.77
5 5 3 13.27 1.94
-5 -5 -3 12.82 4.64
-5 5 -3 16.76 3.44
3 10 -7 49.65 2.15
-3 -10 7 47.71 3.55
-3 10 7 43.62 2.91
-3 10 7 50.84 2.26
-3 10 7 44.67 3.91
-3 8 8 0.5 0.55
-3 -8 8 0.36 0.6
-3 8 8 0.55 0.8
3 8 -8 0.37 0.28
-3 8 8 1.1 0.67
3 7 6 6.06 1.36
3 -7 6 5.35 1.52
3 7 6 5.37 1.84
-2 6 9 41.87 2.89
-2 -6 9 44.81 3.25
-2 6 9 44.58 5.4
-2 -6 9 43.17 1.83
2 -6 -9 34.59 2.48
-2 6 9 42.31 2.24
-4 8 -4 58.21 6.02
4 8 4 55.19 3.24
4 8 4 60.45 3.39
-1 -6 9 187.56 6.73
-1 -6 9 180.26 6.06
-1 -6 9 152.39 4.58
-1 6 9 176.38 6.05
-1 6 9 193.65 7.61
5 5 -7 18.42 1.96
5 5 -7 16.94 2.07
-5 -5 7 20.89 3.4
-5 5 7 18.75 2.19
-5 5 7 17.66 2.66
-5 -5 7 19.18 3.59
4 6 -8 9.37 0.86
-4 6 8 14.33 4.43
-4 -6 8 11.36 2.35
-4 6 8 14.54 2.6
-4 -6 8 13.37 2.55
-2 -15 2 14.8 0.93
2 15 -2 13.67 1.79
-2 15 2 13.06 1.39
-2 -15 2 12.19 2.06
-2 15 2 14.39 2.08
2 15 -2 16.17 2.72
-3 11 -4 46.12 2.98
3 11 4 49.47 2.8
3 11 4 43.63 2.58
-3 14 2 52.15 3.21
3 -14 -2 51.14 2.52
3 14 -2 51.04 3.21
3 14 -2 46.13 1.74
-3 -14 2 44.97 1.38
-3 14 2 50.32 3.18
-3 -14 2 52.17 2.74
3 14 -2 55.32 2.95
-2 -9 8 1.26 0.94
-2 9 8 2.85 1.01
-2 9 8 0.93 1.12
-2 9 8 2.1 0.92
-2 -9 8 2.23 0.55
-2 -9 8 1.04 0.45
-3 13 -2 14.7 1.76
3 13 2 14.85 3.84
3 -13 2 13.23 2.06
3 13 2 14.91 2.79
3 13 2 11.81 1.56
-6 3 5 30.66 4.48
-6 -3 5 36.25 2.7
-6 -3 5 33.79 3.87
-6 3 5 36.72 5.6
-4 -11 5 2.93 1.11
-4 11 5 2.52 0.98
-4 -11 5 2.81 1.48
4 11 -5 2.83 1.06
-4 11 5 3.2 1.43
-4 11 5 3.95 1.84
2 -3 8 7.25 2.19
2 3 8 10.37 3.38
2 3 8 9.64 2.38
3 5 -9 2.49 0.78
-3 -5 9 3.69 1.5
-3 5 9 3.24 1.01
3 -5 -9 1.52 0.4
-3 5 9 2.22 0.85
-3 5 9 3.21 1.3
-3 -5 9 2.09 0.72
0 16 0 2.02 1.52
0 16 0 1.78 0.56
2 11 -7 8.48 1.37
-2 11 7 10.77 3.75
-2 11 7 10.38 3.65
-2 -11 7 7.46 0.8
-2 -11 7 7.21 1.27
-2 -11 7 9.46 1.64
-2 11 7 9.08 2.31
-4 -10 6 192.91 7.5
-4 -10 6 175.12 6.8
-4 10 6 191.38 7.7
-4 10 6 189.98 9.4
4 10 -6 186.03 7.04
-4 10 6 191.47 7.38
0 -5 9 16.42 2.12
0 5 9 20.76 3.33
0 -5 9 20.18 2.15
0 5 9 26.61 4.33
-6 5 1 14.43 2.08
-6 5 1 13.47 4.74
-6 -5 1 13.18 2.75
-6 -5 1 11.73 3.41
6 5 -1 12.56 1.43
1 7 8 32.52 2.52
1 -7 8 28.78 2.2
1 -7 8 26.37 2.11
1 7 8 29.25 2.27
3 14 0 28.49 1.54
3 14 0 29.28 3.34
-3 14 0 35.27 3.18
3 14 0 34.96 3.71
3 14 0 27.78 2.62
3 -14 0 26.83 1.92
-3 14 0 29.31 2.1
2 10 6 69.03 3.88
2 10 6 68.23 3.74
3 3 7 129.62 5.83
3 3 7 127.98 7.45
3 -3 7 123.95 5.92
-5 10 2 1.57 0.7
-5 -10 2 0.63 0.78
5 10 -2 1.62 1.07
5 10 -2 1.51 0.75
-5 10 2 0.88 0.75
5 10 -2 0.15 0.23
1 -14 4 0.03 0.26
1 14 4 -0.21 0.8
1 14 4 0.16 0.27
-1 14 -4 0.23 0.76
1 -14 4 0.46 0.35
1 14 4 0.17 0.5
4 0 -9 0.24 0.27
-4 0 9 0.17 0.63
4 0 -9 0.22 0.38
4 11 2 3.46 1.88
4 11 2 5.55 1.8
4 11 2 1.3 0.55
-4 11 -2 4.58 1.88
-6 -4 0 6.67 2.09
6 4 0 5.42 1.66
-6 -4 0 4.43 1.62
-6 4 0 4.97 1.51
-6 4 0 4.67 1.69
1 0 9 79.21 3.85
1 0 9 79.78 4.16
1 13 5 129.27 6.66
1 13 5 132.62 6.78
-4 1 9 4.55 1.32
4 1 -9 1.41 0.37
-4 -1 9 3.28 1.45
4 1 -9 3.1 0.57
4 -1 -9 3.33 0.69
-6 -5 4 0.22 0.73
6 5 -4 0.81 0.57
-6 5 4 0.72 0.59
-6 -5 4 0.72 0.89
-6 5 4 0.11 0.47
-6 0 -1 0.92 0.95
6 0 1 0.75 1.33
0 16 -1 73.25 2.83
0 16 1 74.23 2.94
0 16 1 73.83 5.32
0 16 -1 71.62 5.71
-5 0 -4 0.45 1.04
5 0 4 0.86 0.52
2 15 1 116.12 5.24
2 15 1 103.26 3.79
2 15 1 114.32 5.33
2 15 1 102.9 3.92
-2 15 -1 110.03 4.81
2 -15 1 103.02 3.68
-2 15 -1 104.13 5.59
1 -1 9 9.44 1.73
1 -1 9 10.71 4.29
1 1 9 12.6 3.69
1 1 9 8.3 2.22
-6 -1 -1 1.63 0.52
-6 1 -1 1.12 0.27
6 1 1 0.69 0.58
2 13 4 49.87 4.93
-2 13 -4 49.97 2.85
2 13 4 55.45 4.5
5 10 -1 0.35 0.32
-5 10 1 2.66 2.07
-5 10 1 2.58 1.19
5 10 -1 1.64 0.86
5 10 -1 3.24 1.32
-5 -10 1 2.89 0.97
-5 -10 1 2.89 1.02
5 10 -3 9.4 1.63
5 10 -3 12.99 2.03
-5 10 3 15.64 1.7
-5 10 3 17.29 3.44
-5 -10 3 16.86 1.6
5 10 -3 15.03 3.35
-5 -10 3 15.42 3.02
5 1 4 12.26 3.33
-5 -1 -4 8.19 1.9
-5 1 -4 10.34 3.04
5 -1 4 8.99 1.6
4 6 5 1.21 1.2
-4 6 -5 1.68 0.68
4 6 5 7.89 1.99
5 0 -8 0.06 0.19
-5 0 8 0.25 0.57
-5 0 8 0.98 1.18
5 0 -8 0.02 0.19
4 10 3 49.47 4.64
4 10 3 49.57 3.35
-4 10 -3 50.84 2.77
0 -11 7 86.75 4.04
0 -11 7 69.61 3.77
0 11 7 88.64 4.62
0 -11 7 74.8 3.69
0 11 7 91.54 4.56
4 -12 -4 32.52 2.4
-4 -12 4 40.61 3.24
4 12 -4 37.21 2.15
-4 12 4 33.96 2.51
-4 12 4 37.88 3.38
-4 12 4 41.27 1.62
-4 -12 4 38.32 2.13
4 12 -4 38.74 4.71
-5 1 8 0.4 0.68
-5 1 8 0.24 0.51
5 -1 -8 0.02 0.24
-5 -1 8 0.13 0.8
5 1 -8 0.03 0.14
-5 -1 8 0.94 1.75
-4 -2 9 12.62 3.96
4 -2 -9 9.93 1.7
-4 2 9 10.5 2.2
4 2 -9 9.19 0.96
-6 -4 5 233.16 8.98
-6 4 5 242.38 9.22
-6 4 5 243.31 9.69
-6 -4 5 231.97 10.2
2 4 8 3.19 1.6
2 -4 8 0.98 1.19
2 4 8 1.72 1.13
-3 14 3 12.41 4.34
-3 14 3 16.08 1.68
-3 -14 3 12.56 1.96
-3 -14 3 8.91 1.72
3 14 -3 16.1 3.39
-3 14 3 11.69 1.4
2 14 3 68.69 4.16
-2 14 -3 61.77 3.44
2 14 3 61.95 2.69
2 -14 3 62.66 2.62
2 14 3 75.5 4.97
-2 14 -3 65.65 4.11
2 14 3 65.89 3.1
1 2 9 35.12 4.26
1 2 9 33.44 2.77
1 -2 9 36.22 2.81
1 10 7 18.11 2.77
1 10 7 21.66 3.31
1 -10 7 19.19 3.57
2 8 7 48.01 3.63
2 -8 7 52.65 3.15
2 8 7 47.35 3.11
-6 6 2 0.92 1.27
-6 -6 2 0.56 0.66
6 6 -2 0.48 0.57
-6 6 2 0.33 0.82
-6 -6 2 0.83 0.52
6 2 1 5.68 2.01
-6 2 -1 3.03 1.56
-6 -2 -1 3.71 2.06
-1 16 0 142.02 5.51
1 16 0 143.47 6.79
-1 16 0 147.42 8.01
-1 14 5 14.89 4.48
-1 -14 5 5.82 1.75
-1 14 5 11.76 3.19
-1 -14 5 12.47 1.81
-1 14 5 10.59 1.46
-1 14 5 10.88 3.01
1 14 -5 10.98 2.68
-1 -14 5 9.87 0.66
5 2 4 78.9 4.5
5 -2 4 69.79 3.92
-5 2 -4 78.1 3.91
-5 -2 -4 84 4.18
-6 -6 3 35.64 4.63
-6 6 3 28.71 3.06
-6 -6 3 32.07 2.22
6 6 -3 29.82 2.13
-6 6 3 32.9 4.99
-1 16 1 280.13 10.27
-1 16 1 291.27 11.75
1 16 -1 289.03 11.14
-5 9 -1 22.17 6.1
-5 -9 -1 18.75 1.47
5 9 1 15.43 3.22
5 9 1 21.11 2.05
4 12 1 371.61 13.57
4 12 1 339.32 12.07
4 12 1 368.84 14.21
-4 12 -1 349.29 13.53
-6 0 6 0.1 0.7
-6 0 6 0.37 0.96
0 -9 8 27.32 2.67
0 -9 8 25.35 2.06
0 9 8 27.54 2.37
0 9 8 29.74 2.58
-5 6 -3 7.35 1.99
5 6 3 9.07 2.22
-5 -6 -3 7.79 3.03
3 4 7 0.85 1.2
3 4 7 3.43 1.12
3 -4 7 1.24 1.12
-2 15 3 24.36 1.29
2 15 -3 19.43 1.85
-2 15 3 29.86 3.3
-2 15 3 26.71 1.98
2 15 -3 20.01 2.4
-2 -15 3 24.68 2.13
-2 -15 3 21.57 1.64
-5 -9 5 91.65 3.87
-5 9 5 95.89 4.03
-5 -9 5 96.17 5.82
5 9 -5 92.66 3.37
-5 9 5 94.65 4.31
5 9 -5 96.53 3.99
1 -15 3 16.98 1.33
1 15 3 17.87 3.25
1 15 3 19.17 4.58
-1 15 -3 17.7 1.41
-1 15 -3 17.67 5.83
1 15 3 17.13 1.26
1 -15 3 15.23 1.53
5 -2 -8 81.45 4.69
-5 2 8 93.86 5.52
-5 2 8 91.32 4.39
-5 -2 8 98.47 4.38
5 2 -8 86.18 4.25
-5 -2 8 96.78 4.37
5 2 -8 87.35 3.52
-6 -1 6 122.81 6.78
-6 1 6 138.37 6.37
-6 -1 6 142.45 7.22
-6 1 6 135.66 7.21
4 0 6 308.92 13.25
2 12 5 209.01 10.05
-2 12 -5 203.95 9.98
2 12 5 224.36 10.42
-1 -13 6 10.77 1.77
1 13 -6 12.49 3.85
-1 -13 6 11.1 1.45
-1 13 6 12.3 3.25
-1 13 6 12.98 1.88
-1 13 6 14.71 1.8
-1 -13 6 14.33 2.09
-5 6 7 25.71 3.18
5 6 -7 31.2 2.01
-5 -6 7 33.1 4.14
5 6 -7 30.1 1.75
5 6 -7 30.07 1.8
-5 -6 7 32.83 2.4
-5 6 7 32.29 3.7
4 9 -7 138.16 5.2
-4 -9 7 127.47 5.34
-4 9 7 133.68 5.74
-4 9 7 142.76 5.95
-4 9 7 140.02 6.66
-4 -9 7 136.98 5.68
4 -1 6 129.85 9.28
4 1 6 124.75 7.12
-3 10 -5 53.08 3.73
3 10 5 59.23 3.91
3 10 5 60.04 3.58
3 -14 1 13.69 1.23
3 14 1 16.85 1.93
3 14 1 16.14 3.51
3 14 1 13.19 1.21
-3 14 -1 17.77 1.84
5 8 2 179.48 9.11
5 8 2 184.05 7.94
-5 -8 -2 175.3 7.41
-5 8 -2 167.04 6.84
-2 -7 9 21.67 1.49
-2 7 9 24.42 3.34
-2 7 9 22.87 2.02
-2 -7 9 23.42 4.93
-2 7 9 25.32 4.3
-4 -3 9 15.8 4.31
4 -3 -9 11.91 1.76
-4 3 9 20.3 4.26
-4 3 9 17.36 2.49
4 3 -9 15.17 1.51
-3 12 6 519.77 18.52
-3 12 6 531.07 20.18
-3 12 6 531.48 9.81
3 12 -6 544.85 4.89
-3 -12 6 457.72 16.06
-3 -12 6 521.94 18.67
-3 -12 6 472.35 16.8
-1 7 9 23.74 4.11
-1 -7 9 25.23 3.04
-1 7 9 27.75 5.67
-1 -7 9 23.81 2.8
-1 -7 9 17.53 1.18
-3 6 9 17.62 2.88
-3 6 9 16.75 3.66
-3 -6 9 14.56 1.26
-3 6 9 17.54 3.94
-3 -6 9 20.37 4.61
-4 7 8 289.91 11.14
-4 -7 8 279.95 10.38
4 7 -8 288.28 10.14
-4 7 8 287.75 10.78
-4 -7 8 301.99 11.39
-4 7 8 300.92 11.46
-3 13 5 4.38 2.75
-3 -13 5 2.76 0.43
-3 13 5 4.77 1.3
3 13 -5 2.13 1.06
-3 -13 5 2.81 1.35
-3 -13 5 2.92 0.61
-3 -13 5 3.08 0.54
-3 13 5 2.72 0.93
1 12 6 190.04 8.86
1 12 6 196.23 9.63
-5 -8 6 44.76 1.66
-5 8 6 46.9 2.55
-5 8 6 49.72 3.45
-5 -8 6 51.98 5.61
5 8 -6 47.8 2.28
-2 0 10 178.85 6.91
-2 0 10 171.53 6.99
-6 -5 0 4.24 1.46
6 5 0 1.76 1.49
-6 5 0 3.9 1.28
-6 -5 0 3.3 1.12
0 6 9 0.85 0.87
0 -6 9 0.59 0.52
0 6 9 0.9 0.75
0 -6 9 1.11 1.13
1 3 9 23.25 2.04
1 3 9 23.54 2.11
1 -3 9 25.08 4.38
0 14 5 19.33 2.28
0 -14 5 17.64 2.59
0 -14 5 16.37 1.33
0 14 -5 16.19 4.01
0 14 5 19.95 3.75
0 16 -2 88.46 5.43
0 16 2 88.16 3.6
0 16 2 87.23 4.5
0 16 2 86.64 4.64
-6 -6 1 0.23 0.63
-6 6 1 0.35 0.69
-6 -6 1 0.7 0.34
6 6 -1 0.53 0.62
-6 6 1 1.24 0.87
-6 -2 6 274.42 10.46
-6 2 6 282.77 11.29
-6 -2 6 275.75 10.49
-6 2 6 264.98 10.01
1 16 1 131.6 6.12
1 16 1 122.69 5.72
-1 16 -1 116.38 7.49
1 16 1 121.38 4.39
1 16 1 124.51 4.42
1 -16 1 115.72 4.68
-1 16 -1 114.45 4.92
3 8 6 87.72 4.85
3 8 6 89.67 5.43
-5 -3 -4 28.01 2.26
-5 3 -4 26.83 2.21
5 3 4 26.69 2.26
5 -3 4 29.72 3.21
-2 1 10 -0.37 0.78
-2 -1 10 0.56 0.41
-2 1 10 0 0.63
-2 -1 10 -0.62 0.86
-2 1 10 0.11 0.2
-5 -10 0 42.79 2.17
5 10 0 42.54 2.2
5 10 0 40.1 2.57
-5 10 0 37.83 2.61
-5 -10 0 39.06 2.53
-1 15 4 31.91 4.8
1 15 -4 33.67 4.29
-1 -15 4 33.11 2.43
-1 15 4 34.21 2.4
-1 15 4 30.52 1.76
-1 -15 4 26.78 2.86
-1 -15 4 29.13 1.53
-1 15 4 35.79 3.29
-5 -10 4 87.05 5.15
-5 10 4 85.42 3.63
5 10 -4 84.7 3.76
5 10 -4 82.36 3.21
-5 10 4 84.61 4.06
-5 -10 4 82.83 3.53
4 -2 6 117.39 5.69
4 2 6 118.34 6.47
-5 3 8 2.46 1.18
5 -3 -8 1.24 0.81
-5 -3 8 1.36 0.75
5 3 -8 0.87 0.42
-5 -3 8 0.52 0.93
5 3 -8 1.84 0.58
-5 3 8 1.59 1.01
-1 0 10 0.02 0.11
-1 0 10 5.15 7
-1 0 10 0.5 0.77
-1 16 2 17.01 1.92
-1 16 2 17.18 2.47
-1 -16 2 17.3 1.16
1 16 -2 19.66 5.85
-6 -6 4 14.34 2.56
6 6 -4 16.36 1.86
-6 6 4 15.06 6.61
-6 6 4 15.93 5.01
-6 -6 4 16.31 2.12
-4 -13 2 136.73 5.48
4 13 -2 162.79 8.17
4 13 -2 161.47 6.08
4 -13 -2 141.96 5.53
-4 -13 2 150.94 6.69
-4 13 2 156.46 5.94
-4 13 2 156.7 6.32
-3 9 8 30.59 2.92
-3 -9 8 27.49 2.28
-3 9 8 30.95 2.6
-3 9 8 29.78 3.41
3 9 -8 27.84 1.75
-3 9 8 29.68 5.02
-4 -13 1 69.48 3.42
4 -13 -1 69.89 2.95
4 13 -1 78.73 3.32
4 13 -1 63.17 2.67
4 13 -1 75.19 3.99
-4 13 1 80.82 3.9
4 9 4 116.59 6.36
4 9 4 120.6 6.3
-4 9 -4 119.43 5.47
-1 -1 10 292.49 10.31
-1 1 10 310.93 11.07
-1 -1 10 322.09 11.85
-1 1 10 325.81 12.44
-1 -1 10 324.79 12.29
0 15 4 60.05 4.43
0 -15 4 57.52 2.32
0 15 4 60.99 3.52
0 -15 4 58.39 2.45
0 15 4 54.92 2.33
0 15 -4 54.02 3.18
0 15 4 59.38 2.82
-6 5 5 48.38 3.32
-6 -5 5 47.16 3.16
-6 5 5 42.79 2.02
6 5 -5 47.76 2.82
-6 -5 5 48.58 3.26
2 -5 8 18.7 4.47
2 5 8 18.72 2.48
2 5 8 16.3 2.87
-2 2 10 4.96 2.4
-2 -2 10 5.53 2.06
-2 2 10 4.11 0.89
-2 2 10 6.23 2.06
-2 -2 10 2.82 0.96
-1 10 8 3.42 1
-1 10 8 5.47 1.34
-1 10 8 5.81 2.14
-1 -10 8 2.69 0.82
-1 -10 8 3.67 1.18
-1 -10 8 4.89 1.29
-2 13 6 9.99 3.02
2 13 -6 6.41 1.93
-2 13 6 9.1 1.83
-2 13 6 7.76 3.39
-2 -13 6 6.16 1.06
-2 13 6 10.23 2.39
-2 -13 6 7.35 2.16
-2 -13 6 7.36 0.94
1 8 8 45.17 2.56
1 -8 8 37.81 2.85
1 -8 8 47.04 3.29
1 8 8 48.77 3.15
-2 14 5 37.76 2.74
2 14 -5 42.37 3.16
-2 -14 5 33.06 1.78
-2 -14 5 40.19 2.86
-2 -14 5 36.86 2.32
-2 14 5 33.49 2.26
-2 14 5 34.09 3.08
0 13 6 39.2 3.79
0 13 6 40.45 5.67
0 -13 6 35.69 3.29
0 -13 6 31.12 2.04
0 13 -6 40.49 3.18
2 -15 2 20.41 1.3
2 15 2 24.81 2.82
-2 15 -2 24.61 1.87
2 15 2 27.26 5.5
-2 15 -2 19.89 3.67
2 15 2 19.53 1.25
2 15 2 18.46 1.5
-6 3 6 8.61 4.08
-6 -3 6 20.27 3.55
-6 3 6 17.83 5.27
-6 -3 6 21.46 3.68
3 -5 7 -0.13 0.8
3 5 7 0.42 0.75
3 5 7 0.74 0.62
4 7 5 17.17 4.69
-4 7 -5 14.7 2.38
4 7 5 15.15 1.71
-2 -10 8 1.77 0.58
-2 -10 8 1.52 0.43
-2 10 8 1.61 2.31
-2 10 8 0.55 0.88
-2 -10 8 2.34 1.11
-2 10 8 3.43 1.08
-4 4 9 8.34 2.08
4 4 -9 5.11 0.94
4 -4 -9 3.73 0.86
-4 4 9 6.55 2.1
-4 -4 9 5.08 1.87
-1 -2 10 44.27 0.87
-1 2 10 55.94 2.45
-1 2 10 62.51 3.37
-1 -2 10 50.55 2.84
-1 -2 10 60.8 4.59
4 -3 6 183.55 8.79
4 3 6 168.25 8.74
-3 11 7 22.16 3.17
-3 11 7 19.79 2.3
-3 11 7 20.17 2.67
-3 -11 7 20.82 3.28
3 11 -7 19.62 2.9
1 -4 9 18.15 3.48
1 4 9 16.93 3.37
1 4 9 23.99 3.03
-6 -4 -1 9.67 3.63
6 4 1 9.43 2.93
-6 4 -1 1.56 1.17
-1 -12 7 5.71 0.96
-1 -12 7 6.45 2.19
-1 12 7 6.46 1.83
-1 12 7 5.23 2.16
-1 -12 7 3.55 1.08
-1 12 7 8.9 2.25
1 12 -7 6.35 1.91
-1 -12 7 2.65 1.51
-3 14 4 2.43 1.02
-3 14 4 2.87 1.1
-3 -14 4 1.9 0.65
3 14 -4 1.75 0.99
-3 -14 4 2.54 0.88
-3 14 4 2.98 2.98
5 -4 4 0.92 0.59
-5 -4 -4 1.54 0.74
5 4 4 0.52 0.73
-5 4 -4 0.62 1.16
4 -13 -3 0.05 0.27
-4 13 3 0.1 0.66
4 13 -3 0.73 0.97
-4 13 3 0.81 0.76
-4 13 3 0.25 0.24
-4 -13 3 -0.01 0.46
-4 -13 3 0.01 0.08
-4 -13 3 0.15 0.22
4 13 -3 0.24 0.37
-6 -7 2 49.84 2.5
-6 -7 2 49.87 5.54
-6 7 2 45.56 2.17
6 7 -2 44.88 2.2
-6 7 2 50.72 2.91
3 13 3 182.68 7.28
3 13 3 214.09 9.28
-3 13 -3 204.91 7.98
3 13 3 194.49 8.34
3 -13 3 183.46 6.75
-2 3 10 0.41 0.85
-2 -3 10 0.44 0.46
-2 3 10 0.34 0.44
-2 3 10 0.32 0.67
2 3 -10 0.02 0.37
-2 -3 10 1.17 0.99
6 7 -3 2.57 0.72
-6 7 3 3.02 1.45
-6 7 3 2 1.21
6 7 -3 2.46 0.97
-6 -7 3 1.54 0.98
-6 -7 3 2.45 1.25
-5 4 8 5.78 1.79
-5 -4 8 11.11 3.72
5 4 -8 8.52 1.23
-5 -4 8 9.21 3.58
-5 4 8 11.59 3.88
5 4 -8 8.66 1.28
4 13 0 399.64 14.42
-4 13 0 375.59 13.79
4 -13 0 344.49 12.3
4 13 0 357.12 12.61
4 13 0 379.87 14.53
-5 7 -3 13.18 4.14
5 7 3 14.55 1.89
5 7 3 15.76 5.01
-4 11 6 1.62 0.56
-4 -11 6 1.35 0.57
-4 -11 6 3.89 1.54
-4 11 6 2.82 1.24
4 11 -6 2.07 0.88
-4 11 6 1.79 1.04
3 12 4 148.61 6.77
-3 12 -4 136.71 5.99
3 12 4 143.87 6.78
4 12 -5 27.09 1.91
-4 12 5 26.9 3.17
-4 -12 5 26.99 1.93
-4 12 5 27.53 3.6
-4 -12 5 29.61 4.56
-4 12 5 27.15 2.28
2 11 6 3.07 1.55
2 11 6 2.97 1.72
5 7 -7 65.61 3
-5 7 7 72.51 3.44
-5 -7 7 69.26 3.96
-5 -7 7 69.6 3.4
-5 7 7 69.53 4.99
-5 -11 2 14.68 2.28
5 11 -2 17.32 1.41
-5 -11 2 14.28 1.07
-5 11 2 16.85 5.41
5 11 -2 10.88 1.67
5 11 -2 14.09 3.19
-5 11 2 15.22 1.84
-3 0 10 -0.1 1.26
-3 0 10 -0.37 1.15
-6 -6 0 10.98 2.87
-6 -6 0 11.71 3.82
6 6 0 11.11 3.02
-6 6 0 11.27 1.72
-1 -3 10 10.03 0.63
-1 -3 10 14.96 3.08
-1 3 10 17.5 3.92
-1 -3 10 15.36 4.57
-1 3 10 14.99 3.28
-1 -3 10 13.13 0.81
1 16 2 65.36 2.46
-1 16 -2 61.66 6.46
1 16 2 68.67 4.82
1 16 2 65.8 2.66
1 -16 2 63.88 3.04
-1 16 -2 64.48 3.01
1 16 2 69.4 3.61
-2 -12 7 4.64 1.39
-2 -12 7 7 3.07
-2 12 7 9.37 2.67
-2 12 7 7.1 1.97
-2 -12 7 5.38 0.75
-2 -12 7 3.33 1.6
-2 12 7 6.5 2.07
-2 -12 7 5.4 0.59
2 12 -7 6.49 2.08
-3 -1 10 185.93 7.51
-3 1 10 201.45 7.77
-3 -1 10 187.89 7.15
-3 1 10 201.13 8.08
2 9 7 4.67 2.72
2 9 7 4.48 1.57
2 -9 7 4.24 2.19
-2 15 4 1.73 1.05
-2 15 4 0.42 0.4
2 15 -4 0.48 0.65
-2 -15 4 0.95 0.36
-2 -15 4 0.62 0.25
-2 15 4 1.33 2.39
-6 -4 6 22.89 4.1
-6 -4 6 23.35 2.67
-6 4 6 22.47 4.01
-6 4 6 26.24 3.78
-3 -7 9 23.09 4.97
-3 7 9 22.44 3.77
-3 7 9 21.06 4.24
-3 7 9 22.02 4.2
0 7 9 19.35 4.51
0 7 9 23.03 2.45
0 -7 9 19.13 4.28
0 -7 9 13.45 2.21
-6 7 1 -0.03 0.76
6 7 -1 0.47 0.67
-6 7 1 0.45 0.6
-6 -7 1 0.08 0.4
-6 -7 1 1.4 0.98
4 -4 6 36.17 2.82
4 4 6 32.42 2.8
5 11 -1 4.32 1.44
-5 -11 1 7.78 2.29
5 11 -1 8.48 2.49
5 11 -1 6.58 2.34
-5 -11 1 8.87 0.76
-5 11 1 8.09 1.93
-6 0 -2 64.27 4.16
6 0 2 60.07 3.44
5 11 -3 110.57 4.76
-5 -11 3 105.43 4.12
-5 11 3 107.71 4.89
5 11 -3 89.01 3.63
5 11 -3 106.31 4.11
-5 -11 3 106.38 4.57
-5 11 3 103.09 4.19
4 12 2 5.28 1.78
-4 12 -2 6.02 2.17
4 12 2 8.33 2.46
4 12 2 8.01 2.29
-2 16 1 17.19 1.64
2 16 -1 18.62 3.26
2 16 -1 20.03 3.34
2 16 -1 15.54 1.82
-2 16 1 20.44 4.35
-2 8 9 23.08 3.94
-2 -8 9 19.65 4.52
-2 -8 9 21.34 1.55
-2 8 9 24.41 3.8
-2 8 9 21.77 2.56
4 11 3 3.21 1.42
-4 11 -3 2.45 1.11
4 11 3 1.91 1.48
3 14 2 142.79 6.3
3 14 2 140.64 6.86
-3 14 -2 129.76 5.22
3 14 2 128.37 4.86
3 -14 2 125.07 4.67
3 15 -1 3.71 1.63
-3 15 1 6.26 3.2
3 15 -1 11.03 3.5
3 15 -1 8.57 2.26
-3 -15 1 8.09 1.81
-3 15 1 7.56 2.85
3 -15 -1 6.63 0.98
-1 -8 9 3.48 0.82
-1 8 9 8.55 2.85
-1 8 9 7.94 2.75
-1 -8 9 5.58 1.79
-1 8 9 7.77 2.77
-1 -8 9 4.91 1.92
-1 -16 3 58.42 2.36
-1 16 3 57.16 3.26
1 16 -3 61.4 4.11
-1 16 3 60.77 3.67
0 16 3 1.28 1.08
0 -16 3 1.08 0.54
0 -16 3 0.75 0.62
0 16 3 0.79 0.22
0 16 3 1.34 0.7
0 16 3 2.27 0.99
0 16 3 0.57 0.29
0 16 -3 1.27 1.08
-6 -6 5 23.45 4.52
-6 6 5 18.59 2.15
-6 -6 5 19.92 1.69
-6 6 5 20.47 4.28
6 6 -5 23.37 2.07
-6 1 -2 20.04 3.12
6 1 2 22.22 3.15
-6 -1 -2 15.88 3.67
6 -1 2 22 3.45
2 -6 8 3.5 1.58
2 6 8 5.1 2.3
2 6 8 4.09 0.92
-4 8 8 26.23 3.73
-4 -8 8 28.35 2.78
-4 -8 8 31.09 5.19
4 8 -8 26.19 2.26
-4 8 8 25.91 3.69
-4 8 8 26.09 2.54
-3 -2 10 1.27 0.86
-3 2 10 1.71 1.09
-3 2 10 1.52 0.86
-3 -2 10 1.08 1.46
3 2 -10 1.88 0.49
3 -2 -10 2.32 0.63
-5 -10 -1 5.28 2.38
5 10 1 8.33 2.86
5 10 1 7.54 2.69
-5 10 -1 9.84 2.58
4 5 -9 10.9 1.22
-4 5 9 13.31 4.68
-4 5 9 10.79 2.24
4 -5 -9 11.92 2.27
-4 -5 9 9.5 2.45
6 7 -4 268.36 10.22
-6 -7 4 275.57 10.63
6 7 -4 282.37 11.13
-6 -7 4 289.1 11.03
-6 7 4 281.52 11.19
-6 7 4 292.87 11.37
0 10 8 142.58 6.14
0 -10 8 123.72 4.83
0 -10 8 136.22 6.92
0 -10 8 131.8 5.77
0 10 8 149.61 6.92
2 16 0 270.7 9.66
2 16 0 314.34 12.02
-2 16 0 295.8 11.64
-2 16 0 282.35 10.32
2 16 0 289.52 10.79
-5 10 5 0.82 0.65
5 10 -5 0.59 0.22
-5 10 5 0.89 0.88
5 10 -5 0.86 0.76
-5 -10 5 1.01 1.29
-5 -10 5 0.11 0.68
-2 -4 10 48.2 2.73
2 4 -10 43.41 1.59
2 -4 -10 41.37 1.28
-2 4 10 50.5 2.54
-2 -4 10 50.4 3.79
-2 4 10 53.26 5.59
-2 4 10 52.1 2.95
-5 9 -2 37.76 3.69
5 9 2 41.25 2.88
5 9 2 41.6 3.16
1 5 9 7.31 3.32
1 -5 9 7.11 2
1 5 9 7.42 2.18
-3 15 2 133.91 6.63
-3 15 2 129.3 5.32
-3 -15 2 108.83 4.36
3 15 -2 114.56 4.85
-3 -15 2 125.38 4.83
3 15 -2 133.68 5.76
3 -15 -2 113.18 4.21
3 15 -2 130.59 5.15
1 11 7 57.9 4.21
1 11 7 56.2 5.35
6 5 1 31.33 3.77
-6 5 -1 33.49 4.89
-6 -5 -1 37.66 3.45
0 -12 7 12.4 2.5
0 12 7 10.95 2.26
0 12 7 13.37 4.5
3 6 7 1.11 1.2
3 -6 7 1.76 1.23
3 6 7 1.65 0.86
-5 -9 6 34.99 3.84
5 9 -6 35.07 2.25
-5 9 6 34.41 2.83
-5 9 6 33.05 3.44
-5 -9 6 36.61 4.9
5 5 4 26.79 3.77
-5 5 -4 23.83 3.12
-4 10 7 11.89 1.58
4 10 -7 9.94 1.5
-4 10 7 8.69 1.51
-4 -10 7 8.59 3.17
-4 -10 7 6.98 2.48
-4 10 7 7.95 2.78
6 2 2 20.92 2.42
-6 -2 -2 23.38 2.39
-6 2 -2 19.34 2.88
3 9 6 39.67 4.48
3 9 6 32.37 2.86
-2 16 2 255.59 9.45
-2 -16 2 238.06 8.6
2 16 -2 244.24 8.76
-2 16 2 194.94 10.51
2 16 -2 258.85 10.21
1 14 5 12.21 3.41
1 14 5 12.99 3
-5 5 8 22.72 3.66
5 5 -8 26.62 1.71
-5 -5 8 28.61 3.25
-5 5 8 27.78 2.3
-5 -5 8 31.91 4.17
5 5 -8 28.82 1.32
0 0 10 151.35 4.34
0 0 10 144.31 4.9
3 15 0 36.25 1.5
3 15 0 49.21 2.79
3 15 0 39.18 2.05
-3 15 0 44.71 2.48
3 15 0 50.69 3.36
-3 15 0 46.48 6.04
-1 -4 10 24.92 2
-1 4 10 28.08 3.82
-1 -4 10 25.45 6.13
-1 4 10 21.81 2.26
4 -13 -4 12.68 1
4 13 -4 15.99 2.71
-4 13 4 15.13 4.78
-4 -13 4 17.49 3.17
-4 -13 4 16.34 0.7
-4 13 4 15.34 1.34
-4 13 4 17.71 1.79
1 -15 4 181.42 3.86
-1 15 -4 178.83 6.93
1 15 4 197.28 7.5
1 -15 4 167.86 3.86
1 15 4 174.39 3.74
1 15 4 181.28 5.77
0 1 10 41.91 2.86
0 1 10 44.13 3.2
0 -1 10 44.37 2.37
0 -1 10 44.8 3.26
2 14 4 6.26 1.79
-2 14 -4 6.06 1.72
2 14 4 6.25 2.52
3 11 5 12.3 3.18
3 11 5 14.08 3.92
-3 11 -5 3.5 2.4
-6 0 7 -0.11 0.84
-6 0 7 0.37 0.48
3 -3 -10 134.72 3.39
-3 3 10 150.41 4.51
-3 -3 10 157.85 5.02
-3 -3 10 137.84 3.36
-3 3 10 143.87 3.68
3 3 -10 135.01 3.49
-3 3 10 155.67 4.41
-6 1 7 23.28 4.67
-6 -1 7 20.62 3.45
-6 1 7 19.07 3.7
-6 -1 7 19.17 3.15
-4 8 -5 22.6 2.7
4 8 5 28.64 4.08
4 8 5 27.29 2.34
1 9 8 1.08 1.11
1 9 8 1.97 1.6
1 -9 8 1.67 0.51
-4 13 -1 140.73 4.25
4 13 1 147.32 4.08
4 13 1 157.52 4.74
-6 5 6 47.69 2.79
-6 -5 6 57.72 5.81
-6 -5 6 49.77 3.9
-6 5 6 54.97 3.13
-3 10 8 0.59 0.61
3 10 -8 0.14 0.35
-3 10 8 0.67 1.4
-3 -10 8 0.37 0.75
-3 10 8 0.16 0.47
-3 10 8 -0.32 1.03
0 17 0 0.83 0.96
0 17 0 0.09 0.21
5 11 0 59.21 3.87
5 11 0 61.94 4.35
-5 -11 0 58.9 3.23
-5 11 0 55.78 4.77
5 11 0 50.15 2.83
-5 -11 0 63.99 3.42
0 2 10 32.88 4.59
0 -2 10 32.6 2.5
0 -2 10 34.07 2.51
0 2 10 32.2 1.87
4 10 4 23.38 1.94
-4 10 -4 24.73 2.34
4 10 4 22.83 4.86
-5 -11 4 128.62 3.95
5 11 -4 135.84 2.96
-5 11 4 135.88 3.49
-5 -11 4 137.43 4.88
5 11 -4 133.79 4.17
-5 11 4 145.32 4.53
-4 5 -6 27.68 1.92
4 -5 6 34.85 3.78
4 5 6 33.34 2.95
4 5 6 37.02 3.18
6 3 2 0.22 0.75
-6 3 -2 2.15 1.37
-6 -3 -2 2.84 1.73
2 13 5 4.26 3.45
-2 13 -5 2.98 1.62
2 13 5 9.88 2.6
2 16 1 162.32 6.37
2 16 1 162.16 5.9
-2 16 -1 142.43 5.41
-2 16 -1 142.83 3.72
2 16 1 142.08 2.76
2 16 1 149.39 2.87
2 16 1 140.16 3.15
-6 -8 2 121.44 4.83
-6 8 2 119.36 5.9
-6 8 2 127.28 3.74
6 8 -2 121.07 3.68
-6 -8 2 122.92 3.53
6 8 -2 127.01 4.16
-3 15 3 82.97 1.95
-3 -15 3 91.83 2.58
-3 15 3 83.35 3.84
3 15 -3 96.37 3.4
-3 15 3 89.01 3.9
-3 -15 3 78.03 3.56
-6 -2 7 31.57 3.15
6 2 -7 27.38 2.55
-6 2 7 32.99 2.74
-6 -2 7 30.87 3.77
-6 2 7 31.95 5.18
2 15 3 29.04 2.06
-2 15 -3 36.93 2.12
2 15 3 36.52 3.8
2 15 3 31.44 3.35
2 15 3 32.57 1.19
2 -15 3 28.11 1.24
-2 15 -3 31.57 2.43
-6 -8 3 81.27 2.93
6 8 -3 78.08 5.47
-6 -8 3 82.42 3.05
6 8 -3 76.53 3.67
-6 8 3 82.3 2.71
-6 8 3 80.73 2.73
6 7 0 0.94 0.95
-6 -7 0 1.9 1.02
-6 7 0 0.52 0.46
-6 -7 0 1.5 1.11
-3 -13 6 0.24 0.28
-3 13 6 0.54 1.32
-3 13 6 0.44 0.92
-3 13 6 0.15 0.5
-3 -13 6 0.34 0.6
3 13 -6 0.69 0.61
-1 15 5 1.91 1.2
-1 -15 5 0.34 0.38
-1 15 5 0.89 0.59
-1 15 5 1.23 0.56
1 15 -5 0.82 0.67
-1 -15 5 1.52 0.61
0 17 1 9.53 2.95
0 17 -1 11.45 4.07
0 17 1 8.76 1.62
0 17 -1 8.97 1
5 8 3 4.46 1.2
-5 8 -3 2.82 1.61
5 8 3 2.66 0.93
-1 -14 6 1.43 0.77
1 14 -6 2.44 0.92
-1 -14 6 1.41 0.78
-1 -14 6 1.96 0.8
-1 14 6 2.63 0.82
-1 14 6 2.58 1.06
-1 14 6 3.45 1.52
1 13 6 114.88 5.76
1 13 6 118.8 4.81
2 -5 -10 44.47 2.64
-2 5 10 51.75 3.6
-2 -5 10 52.67 3.15
-2 5 10 49.84 3.14
-2 5 10 58.67 7.1
-2 -5 10 53.01 2.92
-1 11 8 19.25 1.73
-1 -11 8 15.08 2.26
-1 11 8 22.81 3.52
-1 -11 8 16.12 1.49
-1 11 8 22.69 3.22
-1 -11 8 22.55 2.67
-5 -8 7 20.46 2.79
-5 -8 7 20.44 3.62
-5 8 7 20.63 3.02
5 8 -7 20.74 1.86
-5 8 7 23.33 1.49
-4 6 9 194.44 5.13
-4 6 9 195.74 5.58
-4 -6 9 184.94 5.14
-3 14 5 286.47 5.78
-3 -14 5 283.81 6.05
-3 14 5 290.97 8.36
-3 14 5 288.15 6.87
-3 -14 5 266.6 4.91
3 14 -5 302.58 7.37
-3 -4 10 0.61 0.59
-3 4 10 1.01 0.64
-3 4 10 0.34 0.76
-3 4 10 0.6 0.53
3 -4 -10 1.01 0.68
3 4 -10 0.6 0.35
-3 -4 10 1.38 0.5
1 6 9 67.16 4.1
1 6 9 59.71 3.67
1 -6 9 49.16 3.22
1 -6 9 57.56 4.12
-2 11 8 32.31 2.33
-2 11 8 34.48 3.8
-2 -11 8 29.45 1.09
2 11 -8 32.95 2.78
-2 -11 8 27.86 1.27
-2 11 8 35.56 2.56
-2 -11 8 34.69 4.3
0 3 10 21.39 3.88
0 3 10 18.93 2.29
0 -3 10 18.23 1.6
0 -3 10 17.2 3.3
-1 -5 10 411.95 8.32
-1 -5 10 427.42 9.41
-1 5 10 429.04 9.36
-1 5 10 424.81 8.45
6 6 1 64.94 4.29
-6 -6 -1 65.34 4.03
-6 6 -1 65.5 3.69
-3 -8 9 3.15 1.84
-3 8 9 5.28 1.82
-3 8 9 5.3 1.32
-3 8 9 3.91 1.38
-6 7 5 25.86 2.7
-6 7 5 25.07 3.85
-6 -7 5 25.23 2.35
6 7 -5 23.74 2.06
-6 -7 5 25.16 1.42
6 7 -5 26.65 1.69
2 7 8 27.18 2.1
2 -7 8 22.34 2.74
2 7 8 29.98 4.96
-2 16 3 54.93 3.42
-2 16 3 57.47 3.5
-2 -16 3 44.75 2.74
-2 -16 3 55.08 2.46
2 16 -3 57.56 4.96
5 6 4 5.72 1.51
-5 6 -4 3.66 1.44
5 6 4 3.87 1.49
3 15 1 55.66 3.43
-3 15 -1 46.94 3.35
3 -15 1 44.41 1.97
-3 15 -1 48.66 5.97
3 15 1 43.99 3.36
3 15 1 43.99 2.18
-1 16 -3 63.48 4.54
1 16 3 66.46 4.13
1 16 3 58.79 2.49
1 -16 3 59.61 2.66
-1 16 -3 59.6 2.83
1 -16 3 58.49 2.73
1 16 3 63.34 4.73
0 -8 9 0.87 0.41
0 8 9 3.08 0.97
0 8 9 2.77 1.33
0 -8 9 3.06 1.2
-6 -8 1 83.34 2.81
6 8 -1 79.45 3.09
-6 -8 1 81.48 4.25
6 8 -1 79.23 4.87
-6 8 1 84.32 3.37
-6 8 1 81.49 3.01
1 17 0 3.64 1.17
-1 17 0 1.73 0.76
-1 17 0 1.34 1.46
-6 -3 7 32.01 5.77
-6 3 7 31.27 2.28
6 3 -7 25.85 2.48
-6 3 7 29.49 3.95
-6 -3 7 30.79 4.44
-5 0 -5 8.68 3.62
5 0 5 13.03 2.91
1 17 -1 75.54 4.15
-1 17 1 79.24 4.96
-1 17 1 71.93 3.89
0 15 5 692.78 15.9
0 15 5 747.13 8.88
0 15 -5 699.88 7.15
0 -15 5 648.47 11.81
0 -15 5 688.74 12.68
-5 -6 8 220 5.61
-5 6 8 220.62 5.53
-5 -6 8 209.79 5.14
5 6 -8 215.29 4.34
-5 6 8 221.69 5.88
-6 4 -2 67.85 3.73
-6 -4 -2 74.44 3.89
6 4 2 69.05 5.64
-3 12 7 69.3 4.36
-3 -12 7 63.44 2.98
-3 12 7 76.69 4.37
-3 12 7 70.25 3.33
-3 -12 7 72.34 5.4
-3 -12 7 65.55 3.21
3 12 -7 66.41 3.47
3 7 7 114.07 5.49
3 7 7 111.95 5.02
3 -7 7 110.73 4.14
-4 -14 2 0.43 0.36
4 14 -2 0.83 0.63
-4 -14 2 0.28 0.24
-4 14 2 0.02 0.69
4 14 -2 0.81 0.82
-4 14 2 0.53 0.64
5 -1 5 10.95 3.84
-5 1 -5 11.66 4.32
5 1 5 9.29 2.88
-5 -1 -5 10.48 2.94
-4 14 1 0.5 1.04
4 14 -1 0.14 0.68
-4 -14 1 0.12 0.48
4 -14 -1 0.06 0.32
4 14 -1 0.12 0.15
4 14 -1 0.12 0.43
3 0 8 0.93 1.12
6 8 -4 3.93 1.51
-6 -8 4 4 1.18
-6 8 4 5.83 1.78
-6 8 4 1.03 0.82
-6 -8 4 5.02 1.43
6 8 -4 5.46 1.6
-5 0 9 51.69 3.1
5 0 -9 45.75 3.01
-5 0 9 45.23 3.57
-2 9 9 36.83 4.28
-2 -9 9 39.28 2.6
-2 9 9 36.28 3.23
-2 9 9 39.02 2.49
-2 -9 9 38.42 6.07
2 10 7 179.74 6.31
2 10 7 165.53 7.48
2 -10 7 167.27 6.07
-2 14 6 143.82 6.03
-2 14 6 135.87 5.16
-2 14 6 141.18 3.38
-2 -14 6 130.7 4.74
-2 14 6 141.05 4.79
2 14 -6 142.93 5.4
3 1 8 3.59 1.31
3 -1 8 1.89 1.3
-1 9 9 20.59 3.91
-1 9 9 22.36 4.5
-1 -9 9 19.49 1.62
-1 -9 9 21.33 4.25
-1 9 9 18.28 2.89
-5 1 9 -0.23 0.79
5 1 -9 0.22 0.31
-5 -1 9 -0.08 0.83
5 1 -9 0.08 0.18
5 -1 -9 0.15 0.28
-5 -1 9 0.69 0.66
-5 1 9 0.49 0.58
0 14 -6 0.42 0.55
0 -14 6 -0.09 0.27
0 14 6 -0.06 0.8
0 14 6 2.64 2.38
0 -14 6 0.39 0.5
2 0 9 1.03 0.68
2 0 9 0.11 0.88
-4 9 8 38.89 2.68
-4 -9 8 35.07 2.98
-4 9 8 43.45 3.09
4 9 -8 39.59 2.9
-4 -9 8 37.58 5.75
-4 9 8 35.51 4.59
-1 16 4 171.23 4.34
-1 16 4 165.94 3.21
-1 16 4 171.81 6.87
-1 16 4 169.78 6.89
-1 -16 4 167.58 3.95
1 16 -4 165.85 4.71
-1 -16 4 161.93 3.54
-6 -6 6 5.9 3.38
-6 6 6 5.14 1.83
6 6 -6 4.36 2.1
6 6 -6 5.59 1.09
-6 -6 6 5.42 1.96
-6 6 6 5.44 1.94
-1 13 7 7.44 1.27
-1 -13 7 6.49 0.94
-1 -13 7 11.12 2.49
-1 13 7 11.71 2.93
-1 13 7 8.75 1.99
1 13 -7 7.98 2.18
-1 -13 7 7.95 1.07
2 -1 9 24.19 3.89
2 1 9 21.45 3.34
2 1 9 24.57 3.96
-4 12 6 35.05 4.79
-4 -12 6 38.76 4.26
-4 12 6 34.72 2.76
4 12 -6 38.37 3.72
-4 12 6 35.95 5.77
-4 -12 6 34.28 2.3
5 2 5 54.21 3.75
-5 2 -5 56.72 5.52
5 -2 5 56.6 7.02
0 17 2 3.6 1.48
0 17 -2 1.64 1.31
0 17 2 1.85 1.02
-2 15 5 86.39 2.79
-2 15 5 84.52 2.09
-2 -15 5 84.03 2.37
-2 15 5 90.91 3.99
-2 -15 5 81.37 2.21
2 15 -5 94.63 4.83
4 6 6 74.96 4.11
-4 6 -6 72.84 4.14
4 -6 6 74.86 4.51
4 6 6 77.83 4.47
1 17 1 32.17 0.84
-1 17 -1 30.88 1.35
1 17 1 31.6 2.31
1 17 1 33.6 3.4
-1 17 -1 35.47 4.94
2 12 6 51.6 3.33
2 12 6 48.06 3.24
5 12 -2 190.04 4.03
5 12 -2 214.56 5.58
-5 12 2 209.98 5.38
-5 -12 2 216.27 5.9
5 12 -2 216.92 4.71
-5 12 2 219.07 5.56
-5 -12 2 207.02 4.42
0 4 10 67.49 4.38
0 4 10 69.81 4.36
0 -4 10 67.32 3
0 -4 10 69.97 4.01
3 -2 8 30.41 5.18
3 2 8 32.26 4.52
3 2 8 28.52 1.92
0 16 4 0.87 0.86
0 -16 4 0.57 0.5
0 16 4 0.69 0.52
0 16 4 0.62 0.4
0 16 4 0.9 0.91
0 16 4 1.01 0.49
0 -16 4 1.2 0.53
0 16 -4 -0.01 0.75
5 -2 -9 26.03 2.6
-5 -2 9 37.4 3.84
-5 2 9 34 5.58
5 2 -9 28.21 1.38
-5 -2 9 36.09 3.13
-5 2 9 35.28 4.78
5 2 -9 27.6 2.89
4 14 -3 21.51 2.16
-4 -14 3 14.86 1.58
4 14 -3 18.45 2.12
-4 14 3 23.26 5.94
-4 14 3 19.52 1.37
-4 -14 3 19.07 2.58
4 -14 -3 15.29 1.25
-4 14 3 20.26 1.8
5 10 2 78.81 5.36
-5 10 -2 70.88 3.98
5 10 2 72.49 4.1
3 13 4 0.7 1.16
3 13 4 1.18 0.57
-3 13 -4 1.5 1.13
-3 14 -3 158.47 4.77
3 14 3 143.06 3.49
3 14 3 160.16 5.77
3 14 3 147.11 4.69
3 -14 3 135.73 3.17
-1 -17 2 10.45 0.68
-1 17 2 12.51 2.48
-1 17 2 13.26 4.65
1 17 -2 16.01 4.08
4 0 -10 491.86 8.59
-4 0 10 495.61 10.67
-4 13 5 74.63 5.22
-4 -13 5 78.91 4.17
-4 13 5 80.14 4.14
-4 -13 5 75.87 3.16
-4 13 5 81.39 2.09
4 13 -5 85.39 2.95
2 -2 9 47.82 6.63
2 2 9 49.95 5.14
2 2 9 54.68 3.23
6 4 -7 5.32 1.23
-6 4 7 8.75 2.65
-6 -4 7 8.57 2.9
-6 4 7 5.42 1.49
-6 -4 7 8.18 2.21
-5 -10 6 51 3.97
-5 10 6 51.13 6.61
-5 -10 6 55.47 5.92
-5 10 6 57.37 3
5 10 -6 56.66 4.47
-2 -6 10 76.6 5.48
-2 6 10 70 3.96
-2 6 10 78.15 4.53
-2 -6 10 71.55 3.72
-2 6 10 73.62 3.96
-3 -5 10 216.84 5.72
-3 5 10 189.91 5.37
-3 -5 10 181.76 3.93
-3 5 10 195.9 5.6
-3 5 10 193.99 4.7
3 -5 -10 180.22 4.38
3 5 -10 181.48 4.23
-2 16 -2 560.4 11.96
2 16 2 547.42 9.87
2 16 2 599.04 12.73
-2 16 -2 511.07 9.77
2 16 2 522.75 9.55
-5 11 -1 9.43 1.54
5 11 1 7.49 2.64
5 11 1 6.06 2.37
4 14 0 59.94 3.09
4 -14 0 44.95 2.54
4 14 0 47.1 2.38
-4 14 0 49.01 3.48
4 14 0 52.45 3.26
4 -1 -10 184.57 3.66
-4 -1 10 189.27 6.02
-4 1 10 188.34 5.26
0 -11 8 158.5 3.78
0 -11 8 163.31 4.99
0 -11 8 177.59 4.72
0 11 8 181.22 6.44
0 11 8 172.54 7.39
-5 12 1 8.35 1.45
5 12 -1 8.87 3.48
5 12 -1 6.88 1.04
5 12 -1 8.85 2.39
-5 -12 1 10.63 1.89
-5 -12 1 7.9 0.96
5 12 -3 68.6 4.71
-5 -12 3 67.22 4.76
5 12 -3 68.16 3.13
-5 -12 3 66.03 3.02
-5 12 3 67.53 3.47
-5 12 3 67.25 4.35
-5 -11 5 216.51 7.49
-5 -11 5 207.54 5.54
-5 11 5 217.37 5.09
5 11 -5 192.86 3.53
-5 11 5 210.6 6.06
5 11 -5 212.01 5.64
3 10 6 0.75 0.69
3 10 6 0.6 0.87
-3 15 4 137.55 3.08
-3 -15 4 143.59 4.35
3 15 -4 152.2 4.36
-3 15 4 146.23 5.68
-3 15 4 142.3 4.66
-3 -15 4 126.55 2.9
-2 13 7 18.97 4.66
-2 -13 7 11.77 1.28
-2 -13 7 10.93 0.82
-2 13 7 14.62 2.24
-2 13 7 17.46 4.92
-2 -13 7 11.97 2.7
-2 -13 7 15.31 3.78
-2 13 7 18.14 4.83
2 13 -7 16.21 2.48
4 12 3 5.16 1.88
-4 12 -3 7.07 2.69
4 12 3 8.94 2.81
5 3 5 36.99 3.06
-5 3 -5 39.2 3.59
5 -3 5 47.52 2.98
-4 11 7 3.29 1.51
-4 11 7 1.77 0.79
-4 -11 7 2.48 0.87
-4 11 7 1.72 1.4
4 11 -7 0.92 0.66
-4 -11 7 2.37 1.1
4 9 5 2.21 1.15
4 9 5 1.75 1.16
-4 9 -5 -0.65 0.74
-1 -6 10 112.1 3.34
-1 -6 10 124.01 4.06
-1 6 10 117.26 3.35
-1 6 10 126.1 4.46
-1 6 10 122.35 4.03
-6 -5 -2 8.6 3.93
-6 5 -2 9.78 3.26
6 5 2 8.46 3.79
4 13 2 44.07 2.48
4 13 2 55.11 3.81
-4 13 -2 50.93 3.58
4 13 2 47.18 3.51
-6 8 0 67.73 3.65
-6 -8 0 63.69 3.68
6 8 0 61.29 5.47
6 8 0 59.31 3.81
-6 -8 0 63.33 3.52
1 12 7 97.4 4.49
1 12 7 94.72 4.3
-4 7 9 18.39 2.58
-4 -7 9 16.28 1.71
-4 7 9 22.76 6.25
-4 7 9 22.44 3.03
3 3 8 41.61 5.48
3 -3 8 39.38 3.04
3 3 8 41.48 4.36
4 2 -10 73.02 3.52
-4 2 10 79.47 2.9
4 -2 -10 75 3.29
-4 -2 10 79.88 4.09
-5 -3 9 6.89 3.48
-5 3 9 4.44 1.3
-5 -3 9 6.39 1.74
5 -3 -9 3.06 1.08
5 3 -9 3.63 0.75
-5 3 9 4.89 1.47
5 3 -9 3.78 1.28
1 7 9 13.41 2.39
1 -7 9 8.06 2.21
1 7 9 13.74 3.76
1 -7 9 11.54 2.22
6 9 -2 91.92 3.24
-6 9 2 95.19 3.22
-6 -9 2 89.13 4.44
-6 -9 2 87.97 2.81
-6 9 2 92.91 3.55
6 9 -2 84.58 4.67
1 10 8 14.81 3.38
1 10 8 11.71 3.93
1 -10 8 9.65 2.85
-6 7 -1 16.31 2.08
-6 -7 -1 16.23 2.64
6 7 1 17.22 3.08
2 -3 9 1.25 1.28
2 3 9 0.26 0.95
2 3 9 0.25 0.6
-7 0 3 80.84 4.26
-7 0 3 70.07 5.64
5 7 4 10.07 2.77
5 7 4 9.05 2.62
-5 7 -4 10.46 3.01
-6 9 3 4.5 1.56
-6 9 3 4.79 1.97
-6 -9 3 4.65 1.86
-6 -9 3 6.1 1.87
6 9 -3 4.2 1.01
6 9 -3 6.84 2.16
-6 0 -3 0.6 0.45
6 0 3 0.62 1.17
5 9 3 44.71 3.13
-5 9 -3 48.89 2.88
5 9 3 48.42 3.04
0 13 7 1.89 2.08
0 -13 7 1.33 0.94
0 13 7 1.36 0.91
-7 -1 3 247.8 6.31
-7 1 3 241.3 5.9
-7 -1 3 240.03 7.91
-7 1 3 239.56 8.76
5 7 -8 0.2 0.43
-5 7 8 -0.54 1.04
-5 -7 8 1.18 1.18
-5 -7 8 1.2 0.69
-5 7 8 -0.23 0.87
-7 0 2 1.57 2.47
-7 0 2 0.48 0.52
6 -1 3 36.44 3.54
-6 -1 -3 33.94 2.69
6 1 3 36.42 5.04
-6 1 -3 34.41 2.8
-6 -8 5 32.35 2.09
6 8 -5 34.13 2.47
-6 8 5 32.24 4
6 8 -5 32.79 2.17
-6 8 5 30.22 3.46
-6 -8 5 35.02 5.62
2 -8 8 0.78 1.27
2 8 8 1.37 1.16
2 8 8 0.74 0.86
3 12 5 322.46 10.66
-3 12 -5 331.86 7.9
3 12 5 352.21 8.04
5 9 -7 32.53 2.12
-5 9 7 35.05 2.15
-5 -9 7 36.15 5.36
-5 -9 7 36.72 2.41
-5 9 7 32.47 5.19
-3 11 8 65.72 3.48
-3 11 8 70.22 3.98
-3 11 8 67.93 4.41
3 11 -8 57.34 2.94
-3 -11 8 64.35 3.48
-3 11 8 67.92 4.75
-7 1 2 2.82 1.82
-7 1 2 2.52 1.02
-7 -1 2 1.34 1.58
-7 -1 2 2.77 0.99
-2 16 4 92.81 1.9
2 16 -4 97.94 5.88
-2 -16 4 96.93 2.48
-2 16 4 95.2 3.01
-2 -16 4 84.79 2.83
-2 16 4 94.09 5.27
0 -5 10 42.8 2.49
0 5 10 46.75 4.12
0 5 10 49.01 4.08
0 -5 10 47.88 3.92
4 11 4 40.39 2.8
4 11 4 38.58 3.3
-4 11 -4 38.56 3.31
3 15 2 157.69 6.2
-3 15 -2 152.26 4.65
3 -15 2 141.63 3.21
3 15 2 141.72 3.12
4 0 7 0.81 1.41
1 17 2 16.34 0.77
-1 17 -2 16.48 3.02
1 17 2 26.1 4.96
1 -17 2 14.9 1.78
1 17 2 21.17 1.92
-1 17 -2 19.95 1.18
1 17 2 20.15 2.06
4 3 -10 11.18 1.5
4 -3 -10 12.27 1.61
-4 3 10 16.15 5.28
-4 -3 10 15.14 4.79
-3 9 9 16.58 2.88
-3 9 9 14.28 4.27
-3 -9 9 16.17 4.66
-3 9 9 17.29 3.53
-7 -2 3 99.64 4.13
-7 2 3 109.21 5.86
-7 2 3 105.53 3.99
-7 -2 3 105.45 3.54
4 -1 7 5.46 3.55
4 1 7 7.97 2.24
3 8 7 1.44 2.03
3 -8 7 1.04 0.89
3 8 7 1.08 1.2
-7 0 4 0.17 0.97
-7 0 4 1.45 1.52
-6 5 7 0.52 0.67
-6 5 7 -0.26 1.33
-6 -5 7 0 0.83
-6 -5 7 0.19 0.57
5 4 5 21.78 4.09
5 -4 5 24.85 2.65
-5 4 -5 22.31 4.25
5 12 0 102.15 3.05
5 12 0 109.75 4.27
5 12 0 93.89 2.57
-5 12 0 96.68 5.21
0 -9 9 0.02 0.17
0 9 9 0.19 0.56
0 -9 9 0.59 0.33
0 9 9 0.31 0.9
-6 -9 1 -0.06 0.47
6 9 -1 0.79 1.03
-6 9 1 0.33 0.57
-6 9 1 0.26 0.47
-6 -9 1 0.43 0.5
6 9 -1 0.72 0.51
-6 7 6 11.78 1.6
-6 7 6 10.81 4.16
-6 -7 6 9.37 2.77
-6 -7 6 11.62 2.89
6 7 -6 12.01 2.86
6 7 -6 11.88 1.78
-3 16 1 12.27 1.2
-3 -16 1 9.88 2.23
3 16 -1 13.56 2.49
3 16 -1 8.66 1.5
-3 16 1 13.62 5.12
3 16 -1 15.23 4.14
3 -16 -1 10.52 0.77
5 12 -4 103.88 3.84
-5 -12 4 96.63 2.5
-5 12 4 100.24 2.85
-5 12 4 105.48 3.85
5 12 -4 98.1 2.33
-5 -12 4 97 4.22
6 2 3 80.1 5.47
-6 2 -3 74.27 4.72
6 -2 3 71.91 4.96
-6 -2 -3 75.57 4.2
-7 1 4 6.23 1.95
-7 1 4 5.02 2.41
-7 -1 4 5.25 2.01
-7 -1 4 4.95 1.55
4 -14 -4 335.96 6.92
4 14 -4 389.91 8.3
-4 -14 4 374.46 7.92
-4 14 4 363.67 7.27
-4 14 4 362.7 9.37
-4 14 4 369.35 11.11
-7 -2 2 4.83 1.47
-7 2 2 4.26 1.52
-7 -2 2 4.22 1.18
-7 2 2 2.63 1.16
3 4 8 115.99 4.23
3 -4 8 106.61 5.49
3 4 8 106.17 3.72
-5 4 9 72.78 4.16
-5 -4 9 66.18 5.7
5 4 -9 68.66 2.9
5 4 -9 70.92 2.92
5 4 -9 69.02 3.39
-5 -4 9 71.63 5
-5 4 9 75.45 5.67
4 7 6 206.91 6.93
4 7 6 216.19 7.02
-4 7 -6 203.33 5.64
4 -7 6 222.46 10.6
-3 -6 10 40.52 3.15
-3 6 10 39.67 7.13
-3 -6 10 30.75 1.6
-3 6 10 43.28 4
-3 6 10 42.33 3.15
2 17 -1 53.13 5.07
-2 17 1 48.96 4.38
-2 17 1 49.87 2.95
2 17 -1 47.88 2.68
3 16 -2 175.39 6.48
3 16 -2 175 4.25
-3 16 2 165.74 7.93
-3 -16 2 168.44 3.86
3 16 -2 166.45 4.06
-3 16 2 175.2 4.79
1 15 5 0.81 0.64
-1 15 -5 -0.17 0.88
1 15 5 0.68 1.08
1 15 5 0.3 0.38
1 -15 5 0 0.29
6 9 -4 25.57 1.65
6 9 -4 26.37 3.55
-6 -9 4 26.84 1.47
-6 9 4 28.17 2.06
-6 -9 4 28.1 3.9
-6 9 4 29.57 2.42
-1 17 3 0.38 0.41
-1 17 3 2.2 1.3
1 17 -3 1.67 1.13
-1 -17 3 0.29 0.25
0 17 -3 38.27 3.26
0 17 3 38.01 4.16
0 -17 3 34.15 1.52
0 17 3 33.71 3.66
0 17 3 35.21 2.03
1 0 10 0.98 0.95
1 0 10 0.14 0.37
2 4 9 19.66 5.31
2 4 9 18.25 3.67
2 -4 9 20.03 3.9
4 2 7 32.01 3.28
4 -2 7 39.98 2.81
-1 -12 8 1.81 1
-1 12 8 3.79 1.42
-1 -12 8 1.14 0.56
-1 12 8 3.57 2.04
-1 -12 8 2 1.01
-1 12 8 3.17 1.55
4 14 1 128.91 2.94
4 14 1 148.33 4.45
4 14 1 152.41 4.1
-4 14 -1 140 4.02
4 -14 1 130.77 3.16
2 15 4 20.54 5.29
-2 15 -4 19.85 1.62
2 15 4 21.59 5.16
1 -1 10 18.13 4.23
1 1 10 18.02 3.4
1 1 10 15.92 4.3
1 -1 10 19.79 1.74
-2 17 0 0.22 0.5
2 17 0 0.78 1
2 17 0 0.46 0.72
2 17 0 0.22 0.2
-7 -2 4 297.81 7.73
-7 -2 4 260.68 6.83
-7 2 4 300.52 7.83
-7 2 4 309 7.41
-2 7 10 69.79 6.42
-2 -7 10 67.23 4.98
-2 7 10 66.65 3.76
-2 -7 10 63.08 3.34
-2 7 10 63.55 3.79
-6 0 8 5.65 1.68
-6 0 8 6.68 1.99
3 16 0 3.92 1.27
-3 16 0 2.52 0.96
-3 16 0 2.57 1.18
3 16 0 3.27 1.62
3 16 0 1.54 0.72
3 -16 0 1.4 0.6
-7 0 1 308.6 7.26
-7 0 1 298.53 8.53
-6 -6 -2 5.11 2.56
-6 6 -2 3.56 2.19
6 6 2 5.54 1.81
7 3 -3 2.45 1.88
-7 -3 3 3.88 1.75
-7 -3 3 2.88 1.82
-7 3 3 3.2 1.6
-7 3 3 1.8 1.64
2 14 5 182.22 8.1
2 14 5 199.33 6.74
-6 -1 8 56.81 3.53
-6 -1 8 51.99 5.11
-6 1 8 59.35 3.66
-6 1 8 54.12 3.92
-2 -12 8 25.96 1.98
-2 -12 8 35.08 4.96
2 12 -8 31.25 2.91
-2 12 8 33.68 2.61
-2 12 8 33.83 3.24
-2 12 8 36.04 4.28
-2 -12 8 30.55 0.99
-2 -10 9 5.87 1.16
-2 10 9 14.01 3.74
-2 -10 9 7.5 1.09
-2 -10 9 13.7 4.32
-2 10 9 11.17 3.11
-2 10 9 13.24 4.08
1 16 4 4.53 1.5
1 -16 4 1.47 1.09
1 -16 4 3.64 1.04
1 16 4 4.06 2.35
-1 16 -4 0.63 0.78
1 16 4 2.45 1.08
-1 10 9 133.53 4.72
-1 10 9 142.65 5.29
-1 -10 9 138.46 4.24
-1 -10 9 121.85 3.13
-1 10 9 124.94 5.12
-1 -10 9 110.23 2.85
6 3 3 3.17 1.42
-6 -3 -3 4.4 2
-6 3 -3 3.02 4.37
6 -3 3 4.04 2.49
-7 1 1 72.95 3.88
-7 -1 1 77.17 4.5
-7 -1 1 77.6 6.34
-7 1 1 69.34 4.46
-4 -10 8 182.35 4.35
-4 10 8 194.12 8.83
4 10 -8 193.17 4.16
-4 10 8 201.53 5.49
-4 10 8 202.57 5.14
-4 -10 8 208.62 5.53
-2 17 2 85.68 4.45
-2 -17 2 84.35 2.46
2 17 -2 80.09 1.53
-2 17 2 87.34 2.89
2 17 -2 81.63 6.99
-7 3 2 0.86 1.23
-7 -3 2 2.37 1.18
-7 -3 2 2.11 1.81
7 3 -2 2.03 0.97
-7 3 2 0.6 0.97
-1 7 10 25.88 3.89
-1 7 10 26.73 4.53
-1 -7 10 21.73 1.15
-1 -7 10 26.22 3.46
-1 7 10 23.94 2.78
-3 14 6 104.16 4.29
-3 14 6 111.57 4.7
-3 -14 6 100.79 2.07
3 14 -6 109.68 3.21
-3 -14 6 107.34 3.61
-3 14 6 106.01 3
-3 -14 6 96.41 2.13
-4 4 10 52.63 4.31
-4 -4 10 50.52 5.05
4 -4 -10 36.95 3.58
4 4 -10 40.76 3.21
1 -2 10 384.34 7.69
1 2 10 404.07 7.58
1 2 10 400.93 10.02
1 -2 10 407 10.18
1 14 6 3.32 1.88
1 14 6 1.35 0.49
2 11 7 0.39 0.95
2 11 7 0.19 1.04
4 -3 7 3.41 1.14
4 3 7 3.38 1.27
-6 -2 8 17.22 3.02
6 2 -8 14.79 2.21
-6 2 8 12.41 5.4
6 2 -8 9.64 2.14
-6 2 8 17.85 3.81
-6 -2 8 19.26 3.24
-7 2 1 0.59 0.65
-7 -2 1 0.03 0.79
7 2 -1 0.61 0.87
-7 2 1 0.12 0.59
-7 -2 1 -0.74 0.83
1 15 -6 0.22 0.32
-1 15 6 1.61 1.29
-1 -15 6 0.3 0.38
-1 -15 6 1.48 1.03
-1 15 6 0.58 0.61
-1 15 6 1.15 1.36
-1 15 6 0.59 0.69
-7 -3 4 14.52 2.95
-7 3 4 14.12 2.59
-7 3 4 14.55 3.99
-7 -3 4 12.26 3.64
5 5 5 106.24 4.29
5 -5 5 108.97 4.02
-5 5 -5 103.71 4.83
-4 -8 9 64.11 4.81
-4 8 9 64.72 5.68
-4 8 9 67.18 5.99
-4 -8 9 67.27 5.48
-4 8 9 75.6 5.57
0 -6 10 10.51 1.23
0 6 10 18.87 3.62
0 -6 10 13.74 3.1
0 6 10 13.87 3.22
-3 -16 3 50.08 3.67
-3 16 3 53.12 4.47
-3 -16 3 48.18 3.33
3 16 -3 57.64 5.64
-3 16 3 55.03 4.37
-7 0 5 25.76 3.58
-7 0 5 29.41 5.2
-3 -13 7 43.48 3.2
-3 13 7 50.17 3.68
-3 13 7 52.68 4.06
-3 -13 7 46.01 4.56
-3 13 7 47.46 5.32
3 13 -7 51.55 5.4
-2 16 -3 70.87 4.93
-2 16 -3 77.44 7.03
2 16 3 74.56 5.79
2 16 3 80.08 5.98
2 16 3 68.62 4.59
2 -16 3 65.97 4.4
2 16 3 65.92 4.45
1 8 9 1.54 1.07
1 -8 9 0.19 0.64
1 -8 9 0.4 0.51
1 8 9 1.45 1.08
3 -5 8 25.34 2.9
3 5 8 25.26 3.95
3 5 8 25.07 3.99
-2 0 11 -0.47 3.66
-2 0 11 0.99 1.09
-6 8 -1 13.14 1.98
6 8 1 10.1 4.07
-6 -8 -1 10.52 1.26
6 8 1 11.05 3.08
5 5 -9 3.05 0.62
-5 -5 9 3.19 1.45
5 5 -9 1.67 0.69
-5 5 9 1.72 0.95
-5 5 9 3.06 1.99
5 5 -9 0.5 0.36
-5 -5 9 1.39 2.27
-1 -16 5 154.65 3.43
-1 16 5 176.08 7.62
-1 16 5 161.88 4.69
-1 -16 5 149.76 2.77
-1 16 5 159.4 7.04
1 16 -5 161.93 6.58
-1 -16 5 150.77 3.46
-1 16 5 159.63 3.52
-7 -1 5 1.24 1.67
-7 1 5 1.33 1.12
-7 1 5 0.52 1.18
-7 -1 5 0.6 1.04
-3 15 5 3.34 1.4
3 15 -5 3.6 1.05
-3 -15 5 3.53 1.21
-3 15 5 3.79 2.03
-3 15 5 2.51 1.85
-3 -15 5 1.81 0.7
6 6 -7 212 4.24
-6 -6 7 206.35 6.8
-6 -6 7 223.2 5.53
-6 6 7 219.08 6.17
-6 6 7 228.26 5.99
6 6 -7 189.72 4.65
5 8 4 87.09 3.37
-5 8 -4 88.94 3.21
5 8 4 83.3 6.21
-6 -9 0 3.35 1.12
6 9 0 2.79 1.27
-6 -9 0 4.15 1.35
6 9 0 2.21 2.51
-6 9 0 0.39 0.76
5 11 2 18.51 5.66
-5 11 -2 22.78 3.24
5 11 2 16.67 5.59
-2 17 -1 16.53 2.1
2 17 1 16.2 0.63
2 17 1 23.06 5.46
-2 17 -1 15.51 5.63
2 17 1 15.29 1.67
2 17 1 16.21 0.7
2 17 1 17.04 3.34
-2 1 11 810.23 16.12
-2 -1 11 794.05 14.75
1 -3 10 67.31 4.97
1 3 10 73.83 6.28
1 3 10 64.65 4.98
2 5 9 2.14 1.04
2 -5 9 1.73 1.71
2 5 9 2.61 1.39
-7 4 3 22.97 2.71
-7 -4 3 20.63 3.6
7 4 -3 22.69 2.24
-7 -4 3 26.05 2.49
-7 4 3 26.25 5.85
0 18 0 1.17 1.27
0 18 0 0.95 0.31
-5 11 6 218.5 5.65
-5 -11 6 218.79 5.28
5 11 -6 226.46 5.6
-5 11 6 213.59 5.57
-5 -11 6 212.59 4.33
4 10 5 18.33 3.84
4 10 5 23.24 2.02
-4 10 -5 18.49 3.12
-5 8 8 26.18 2.76
5 8 -8 25.56 1.34
-5 -8 8 28.41 2.78
-5 8 8 34.18 6.08
-5 -8 8 29.05 4.49
-6 4 -3 208.59 5.99
6 4 3 211.78 6.88
-6 -4 -3 204.5 6.29
3 11 6 12.08 3.36
3 11 6 9.58 3.37
-4 13 6 411.45 11.54
-4 -13 6 399.43 8.07
4 13 -6 431.08 8.71
-4 -13 6 379.81 6.57
-4 13 6 392.09 9.07
-4 13 6 399.55 7.71
-6 -3 8 195.02 5.11
-6 -3 8 185.96 4.94
-6 3 8 193.34 5.93
-6 3 8 185.07 5.05
6 3 -8 179.93 3.84
-7 -4 2 209.12 6.02
-7 -4 2 218.96 9.96
-7 4 2 207.89 5.4
7 4 -2 209.94 5.51
-7 4 2 212.31 8.39
7 3 -1 5.32 2.27
-7 -3 1 2.71 1.74
-7 3 1 3.83 1.71
-7 -3 1 5.09 1.47
-7 3 1 3.3 2.53
2 13 6 58.83 5.1
2 13 6 58.53 7.59
-7 2 5 22.61 4.05
-7 -2 5 7.17 5.09
-7 2 5 26.92 4.8
-7 -2 5 26.64 6.66
-4 15 2 18.77 2.34
4 -15 -2 17.53 1.45
4 15 -2 24.59 3.67
-4 -15 2 22.54 2.58
4 15 -2 17.92 2.74
-4 15 2 19.2 2.44
-5 13 2 7 2.43
-5 13 2 5.2 1.65
-5 -13 2 5.34 1.76
5 13 -2 8.17 3.05
-5 -13 2 4.31 1.17
5 13 -2 1.92 1.1
5 13 -2 5.35 1.81
3 16 1 106.03 4.75
-3 16 -1 88.15 2.33
-3 16 -1 85.69 6.89
3 16 1 89.42 1.88
3 -16 1 82.53 5.41
3 16 1 92.31 6.35
-5 12 -1 73.9 5.32
5 12 1 74.51 5.3
5 12 1 68.99 5.84
-4 -15 1 83.23 6.27
4 15 -1 93.52 4.85
4 -15 -1 74.24 5.29
4 15 -1 87.83 4.21
-4 15 1 88.67 4
6 10 -2 60.39 4.34
6 10 -2 66.21 5.05
-6 10 2 66.39 5.14
-6 -10 2 63.92 4.56
-6 -10 2 59.35 7.12
-6 10 2 60.59 4.94
-2 2 11 92.55 3.76
-2 2 11 81.46 5.39
-2 -2 11 86.03 7.35
-2 -2 11 70.14 19.77
-2 2 11 83.12 6.07
0 -12 8 75.97 6.2
0 -12 8 63.57 4.49
0 12 8 76.23 6.19
0 12 8 81.91 6.69
6 9 -5 137.95 4.16
-6 9 5 136.78 4.25
-6 9 5 137.72 3.74
-6 -9 5 135.31 3.95
-6 -9 5 131.44 3.79
6 9 -5 135.1 2.84
-1 -14 7 8.48 2.31
-1 -14 7 5.05 1.07
-1 14 7 8.63 1.26
1 14 -7 6.85 2.16
-1 14 7 8.37 2.91
-1 14 7 8.02 2
2 9 8 101.02 4.47
2 -9 8 89.27 4.92
2 9 8 101.37 5.1
0 18 -1 3.69 0.74
0 18 -1 5.01 2.14
0 18 1 3.74 0.8
0 18 1 4.02 2.41
4 4 7 74.24 6.19
4 -4 7 74.2 8.02
4 4 7 78.07 5.95
-5 -12 5 1.14 0.62
-5 12 5 0.67 1.19
5 12 -5 1.12 0.7
-5 -12 5 0.74 0.89
-5 12 5 1.04 0.9
-3 7 10 229.51 5.79
-3 7 10 244.91 6.5
-3 -7 10 251.6 7.4
-3 7 10 251.71 6.73
6 10 -3 36.77 3.06
6 10 -3 41.72 3.44
-6 -10 3 41.44 3.07
-6 -10 3 44.12 4.78
-6 10 3 42.51 3.71
-6 10 3 38.79 3.68
-1 0 11 805.14 14.93
-1 0 11 727.45 12.06
-1 0 11 802.77 14.8
0 16 5 20.49 3.48
0 -16 5 17.33 2.76
0 16 5 19.81 1.92
0 16 -5 12.63 3.67
0 16 5 22.03 2.83
0 -16 5 15.87 1.09
-2 15 6 3.77 1.08
2 15 -6 -0.04 0.76
-2 -15 6 1.29 0.76
-2 15 6 3.29 1.24
-2 15 6 1.93 0.85
-2 -15 6 0.42 0.43
-2 15 6 2.06 2.2
-2 -15 6 0.53 0.37
-6 8 6 94.96 3.73
-6 -8 6 88.93 2.97
6 8 -6 88.58 1.58
-6 8 6 88.2 2.74
-6 -8 6 91.04 4.76
6 8 -6 93.19 3.53
4 -5 -10 0.3 0.39
4 5 -10 1.14 0.34
-4 -5 10 1.56 1.1
-4 5 10 0.65 0.92
0 15 -6 0.88 0.84
0 15 6 0.14 0.77
0 -15 6 0.32 0.57
0 -15 6 0.45 0.45
0 15 6 -0.14 0.75
5 10 3 22.27 2.05
5 10 3 21.29 5.71
-5 10 -3 22.79 2.66
-2 17 3 307.91 10.63
2 17 -3 320.19 8.89
-2 -17 3 300.39 5.53
-2 17 3 300.69 6.51
-7 -4 4 7.08 2.12
7 4 -4 5.29 1.7
-7 4 4 5.81 2.82
-7 -4 4 4.55 1.11
-7 4 4 5.09 2.02
-1 17 -3 -0.08 1.07
1 17 3 1.04 0.8
1 -17 3 0.22 0.25
1 -17 3 0.03 0.38
-1 17 -3 0.61 0.43
1 17 3 0.85 0.81
1 17 3 2.03 1.57
1 17 3 -0.05 0.14
-4 -12 7 432.68 8.68
-4 12 7 425.68 8.58
-4 12 7 429.92 10.04
-4 12 7 439.29 9.96
-4 -12 7 388.69 7.16
4 12 -7 444.17 8.25
-1 -1 11 12.25 0.7
-1 -1 11 19.43 5.09
-1 1 11 11.48 2.14
-1 1 11 19.49 5.22
-1 1 11 26.31 6.47
-1 -1 11 20.55 5
1 11 8 123.08 4.74
1 11 8 124.91 5.34
1 -11 8 110.41 3.58
4 -8 6 208.66 9.32
4 8 6 223.42 7.88
4 8 6 234.59 8.26
-4 8 -6 195.19 6.04
-5 13 1 1.18 1.04
-5 -13 1 0.62 0.59
5 13 -1 1.45 0.6
5 13 -1 1.04 1.19
5 13 -1 0.47 0.69
-5 10 7 26.6 2.81
-5 10 7 25.26 2.19
-5 -10 7 26.43 2.13
5 10 -7 24.3 1.74
-5 -10 7 28.58 4.11
3 9 7 259.45 8.05
3 9 7 266.35 9.55
3 -9 7 255.86 8.25
5 13 -3 115.87 2.77
-5 -13 3 109.55 2.47
-5 -13 3 118.39 4.78
-5 13 3 116.17 3.07
-5 13 3 117.49 4.14
5 13 -3 116.22 3.58
3 14 4 139.34 6.11
-3 14 -4 132.66 4.37
3 14 4 141.85 5.46
4 13 3 2.92 1.84
4 13 3 3.45 1.73
-4 13 -3 2.03 0.73
-7 0 0 0.45 1.96
-7 0 0 0.18 1.24
4 14 -5 34.53 4.18
-4 14 5 31.81 7.59
-4 14 5 34.39 3.15
-4 -14 5 31.81 0.73
-4 -14 5 33.62 3.15
-4 14 5 34.43 2.69
6 7 2 92.46 4.04
-6 -7 -2 92.8 3.18
6 7 2 87.6 3.84
-6 7 -2 87.21 2.88
-1 18 0 18.03 5.84
-1 18 0 15.88 1.01
1 18 0 17.25 4.54
-7 1 0 138.66 6.58
7 1 0 133.01 4.96
-7 1 0 129.55 4.01
-7 -1 0 140.76 5.2
-7 -1 0 141.33 4.8
-3 -10 9 379.68 8.05
-3 10 9 390.51 9.18
-3 10 9 399.98 8.54
-3 10 9 381.93 8.98
1 -4 10 1.64 1.28
1 4 10 3.42 1.73
1 4 10 1.45 0.62
-7 3 5 811.87 15.23
-7 -3 5 817.98 10.1
-7 3 5 818.08 8.52
-7 -3 5 811.1 15.11
-2 14 7 19.87 2.96
-2 -14 7 13.61 0.75
-2 -14 7 12.35 1.46
-2 -14 7 15.53 0.83
-2 14 7 16.44 2.57
-2 -14 7 17.36 2.65
2 14 -7 13.25 3.44
-2 14 7 21.18 2.7
-2 14 7 16.5 1.62
-2 8 10 5.64 1.96
-2 -8 10 4.48 1.2
-2 8 10 8.42 2.79
-2 8 10 6.24 1.95
-2 -8 10 7.57 2.38
-4 -15 3 339.08 7.21
4 -15 -3 306.19 6.34
-4 -15 3 317.72 6.03
4 15 -3 363.26 7.69
-4 15 3 347.41 8.48
4 15 -3 348.57 6.49
-4 15 3 349.79 8.52
-4 15 3 341.11 6.53
0 10 9 43.02 4.71
0 -10 9 44.56 4.86
0 -10 9 32.2 2.43
0 10 9 42.55 4.96
0 -10 9 34.23 3.84
-1 -2 11 73.32 6.37
-1 2 11 78.48 5.91
-1 2 11 72.58 4.89
-1 2 11 77.82 5.79
1 18 -1 41.33 5.25
-1 18 1 37.63 2.77
-1 18 1 44.3 3.74
-3 0 11 145.8 7.65
-3 0 11 106.18 11.58
1 13 7 14.17 4.62
1 13 7 17.5 3.69
-6 10 1 12.89 1.82
6 10 -1 15.38 5.21
-6 -10 1 11.96 1.2
6 10 -1 13.17 3.52
-6 -10 1 13.25 2
-2 -3 11 1.88 0.96
-2 3 11 0.87 0.86
-2 3 11 1.71 2.3
-2 3 11 2.33 1.07
-2 -3 11 0.65 0.6
-3 15 -3 0.48 0.37
3 15 3 0.64 0.74
3 -15 3 0.23 0.39
3 15 3 0.78 0.6
3 15 3 0.35 0.21
-2 16 5 42.02 3.56
-2 -16 5 35.62 3.22
-2 -16 5 44.13 3.34
-2 16 5 44.39 3.1
2 16 -5 47.05 5.29
-2 16 5 41.25 3.74
5 6 5 51.5 4.89
5 6 5 53.11 4.74
-5 6 -5 48.58 3.95
5 -6 5 53.59 5.87
-1 -17 4 6.25 1.38
-1 17 4 5.66 0.42
-1 17 4 8.57 2.83
1 17 -4 7.92 2.24
-1 17 4 5.93 2.1
-3 -1 11 336.3 7.89
-3 1 11 339.09 8.01
-3 -1 11 334.5 6.99
-3 1 11 323.16 6.92
-6 -4 8 35.62 5.3
-6 4 8 40.17 6.42
-6 -4 8 35.82 5.21
6 4 -8 24.71 2.77
-6 4 8 33.35 2.71
4 15 0 19.52 2.19
4 -15 0 14.6 2.14
4 15 0 23.16 5.71
-4 15 0 19.22 2.64
4 15 0 16.45 0.9
7 4 -1 68.26 6.02
-7 4 1 66.38 5.76
-7 4 1 61.1 4.96
-7 -4 1 64.34 7.72
-7 -4 1 64.57 4.82
-7 5 3 14.15 5.02
-7 5 3 15.62 4.74
-7 -5 3 18.57 3.62
7 5 -3 17.16 3.22
-7 -5 3 14.98 4.05
-3 12 8 5.23 2.32
-3 12 8 4.5 2.01
3 12 -8 2.6 0.98
-3 -12 8 5.98 1.48
-3 12 8 7.3 2.58
-3 12 8 6.9 2.49
4 14 2 41.79 3.61
-4 14 -2 37.38 3.24
4 14 2 37.5 2.68
4 14 2 41.17 3.47
4 12 4 0.95 0.92
4 12 4 1.07 1.63
-4 12 -4 -0.08 0.83
3 -6 8 35.58 4.85
3 6 8 40.42 6.22
3 6 8 33.72 2.98
-1 -8 10 0.42 0.27
-1 8 10 1.73 0.69
-1 -8 10 2.86 1.23
-1 -8 10 0.85 0.91
-1 8 10 1.87 1.65
-1 8 10 1.46 1.61
-6 10 4 23.39 2.16
-6 10 4 26.74 2.31
-6 -10 4 23.4 3.6
6 10 -4 22.57 2.53
6 10 -4 22.53 1.13
-6 -10 4 23.14 2.62
-6 5 -3 11.66 3.58
6 5 3 11.9 4.51
-6 -5 -3 14.67 4.03
5 6 -9 32.44 1.12
-5 6 9 35.24 5.01
-5 -6 9 34.82 4.82
-5 -6 9 35.42 3.78
-5 6 9 36.29 3.91
-7 -2 0 -0.24 0.78
-7 -2 0 1.28 1.13
-7 2 0 0.81 0.79
7 2 0 1.15 1.23
-7 -5 2 56.01 4.77
-7 5 2 50.25 7.55
-7 -5 2 58.05 5.91
7 5 -2 55.76 4.35
-7 5 2 61.25 5.62
0 -7 10 0.39 0.57
0 7 10 0.4 0.64
0 -7 10 0 0.27
0 7 10 1.19 0.96
0 17 4 164.6 3.15
0 -17 4 167.27 3.38
0 17 4 163.34 3
0 17 4 159.03 4.08
0 17 4 173.06 8.27
0 17 -4 164.06 6.48
0 17 4 167.51 5.78
-3 13 -5 1.26 1.76
3 13 5 3.81 1.27
3 13 5 3.58 1.88
2 6 9 2.62 0.96
2 -6 9 1.04 0.93
2 6 9 0.53 0.86
-3 16 4 365.12 7.8
-3 16 4 337.16 5.89
-3 16 4 334.72 9.72
-3 -16 4 339.79 6.43
3 16 -4 359.44 8.88
-3 -2 11 44.84 13.17
-3 2 11 40.57 11.02
-3 -2 11 28.94 7.17
-3 2 11 32.18 5.72
0 18 -2 0.28 1.21
0 18 2 2.79 1.08
0 18 2 0.63 0.55
1 18 1 8.04 0.71
-1 18 -1 7.86 1.59
-1 18 -1 8.93 3.16
1 18 1 9.54 2.86
1 18 1 14.11 3.51
0 14 7 46.21 3.81
0 14 7 45.75 4.88
0 -14 7 47.17 3.93
4 5 7 39.59 5.66
4 -5 7 46.91 4.2
4 5 7 43.18 5.16
-6 7 7 9.47 3.77
6 7 -7 6.28 0.85
-6 -7 7 8 2.67
-6 -7 7 7.1 2.16
6 7 -7 3.49 0.95
-6 7 7 9.51 1.99
6 7 -7 6.79 1.48
-1 3 11 0.42 0.57
-1 3 11 0.57 1.11
-1 -3 11 -0.34 0.88
-1 -3 11 1 0.81
-1 3 11 -0.16 0.43
2 17 2 1.32 0.96
2 -17 2 0.05 0.11
2 -17 2 0.13 0.15
2 17 2 0.82 0.8
-2 17 -2 0.08 0.57
-2 17 -2 0.28 0.38
2 17 2 0.09 0.15
-7 -5 4 48.69 6.97
-7 -5 4 49.06 4.32
-7 5 4 42.18 4.49
-7 5 4 43.78 3.96
7 5 -4 44.78 3.57
5 13 0 2.46 1.44
5 13 0 1.67 1.06
-5 13 0 2.32 1.15
5 13 0 1.79 0.85
-7 0 6 -0.56 1.33
-7 0 6 0.35 0.71
1 18 -2 78.73 6.35
-1 18 2 75.72 5.12
-1 18 2 79.02 6.17
5 13 -4 3.21 0.89
-5 -13 4 5.8 1.77
5 13 -4 6.09 1.66
-5 13 4 5.98 3.61
-5 13 4 6.34 1.57
-5 -13 4 6.82 2.41
-7 -4 5 234.2 8.44
-7 -4 5 232.03 10.6
-7 4 5 237.24 5.94
-7 4 5 227.59 6.34
-2 -11 9 80.99 5.46
-2 11 9 89.02 5.41
-2 11 9 82.39 6.71
-2 11 9 87.82 2.97
-2 -11 9 97.1 5.99
-2 -11 9 76.36 5.13
-4 -9 9 5.14 2.69
-4 9 9 6.69 2.75
-4 9 9 7.06 2.42
4 9 -9 2.32 0.63
-4 9 9 7.16 2.09
-4 -9 9 4.02 1.55
-7 1 6 211.93 6.4
-7 1 6 208.74 5.33
-7 -1 6 206.17 5.55
-7 -1 6 211.54 6.35
-2 4 11 103.15 3.73
-2 -4 11 91.36 3.41
-2 -4 11 101.38 5.33
-2 4 11 103.32 3.92
-2 4 11 93.12 2.57
-1 -11 9 11.94 1.74
-1 -11 9 20.18 3.31
-1 11 9 18.04 2.79
-1 -11 9 18.57 1.85
-1 11 9 17.86 3.13
-1 11 9 17.75 6.15
-4 -6 10 93.94 7.95
-4 6 10 88.92 3.57
-4 6 10 80.87 7.01
-7 -3 0 14.89 5.52
7 3 0 15.75 4.98
-7 3 0 14.45 5.22
-7 -3 0 24.31 4.93
5 0 6 0.93 1.65
-4 11 8 154.59 4
-4 11 8 152.7 5.28
-4 -11 8 147.27 7.11
4 11 -8 152.52 3.47
-4 11 8 154.05 5.1
1 -9 9 45.11 5.83
1 9 9 49.6 5.14
1 9 9 45.7 4.64
-6 -9 -1 44.73 3.59
6 9 1 42.23 4.27
-6 9 -1 46.1 3.67
6 9 1 47.09 3.94
1 5 10 72.72 6.5
1 5 10 73.77 5.36
1 -5 10 72.39 5.3
5 -1 6 143.21 5.25
5 1 6 128.13 5.9
5 9 4 0.99 1.96
5 9 4 1.77 1.22
-5 9 -4 0.24 1.01
-1 13 8 2.66 0.95
-1 13 8 3.28 1
-1 13 8 2.58 1.72
-1 -13 8 1.32 1.02
-1 -13 8 2.22 0.75
-3 -3 11 667.86 11.93
-3 3 11 720.08 13.51
3 -3 -11 692.14 11.31
-5 0 10 0.27 0.61
-5 0 10 0.24 0.97
5 0 -10 0.01 0.11
-6 5 8 15.48 5.31
-6 -5 8 21.92 2.85
-6 5 8 16.66 3.38
6 5 -8 15.75 1.66
6 5 -8 14.13 1.72
-6 -5 8 18.89 4.21
-5 -9 8 35.44 3.91
5 9 -8 38.19 3.34
-5 9 8 36.1 4.49
-5 -9 8 43.77 4.97
-5 9 8 39.95 5.07
-7 -2 6 9.65 5.1
-7 2 6 13.47 3.78
-7 2 6 14.39 4.55
-7 -2 6 12.68 4.19
3 16 2 25.07 2.21
-3 16 -2 20.27 2.34
3 16 2 21.11 1.65
3 16 2 21.39 4.21
3 -16 2 17.81 1.5
-5 1 10 6.62 2.33
5 -1 -10 4.93 1.17
-5 1 10 7.55 2.15
-5 -1 10 7.58 1.93
-5 -1 10 6.43 1.96
5 1 -10 3.58 0.96
-7 5 1 17.5 2.24
-7 -5 1 19.4 1.87
-7 5 1 16.55 5.25
7 5 -1 20.14 1.86
-7 -5 1 20.74 3.03
-4 15 4 18.16 1.74
-4 15 4 17.71 2.01
-4 -15 4 18.13 2.94
-4 15 4 17.33 2.34
4 -15 -4 14.66 1.36
4 15 -4 22.49 4.05
-3 -8 10 79.03 5.09
-3 8 10 98.52 4.11
-3 -8 10 107.71 7.28
-3 8 10 99.05 4.66
-3 8 10 91.73 4.99
6 0 4 57.62 4.61
-6 0 -4 64.74 5.24
6 10 0 68.73 4.95
-6 -10 0 61.36 4.61
-6 -10 0 62.68 4.65
6 10 0 63.41 5.09
-6 10 0 67.07 5.01
2 13 -8 0.29 0.42
-2 -13 8 0.54 1.04
-2 -13 8 0.17 0.12
-2 -13 8 0.15 0.16
-2 13 8 0.58 0.49
-2 13 8 -0.05 0.89
2 12 7 58 5.02
2 12 7 61.53 5.77
5 -2 6 418.05 9.62
5 2 6 408.4 10.08
6 -1 4 54.11 4.5
-6 -1 -4 53.04 5.81
-6 1 -4 52.74 4.05
6 1 4 49.13 4.66
-1 4 11 64.53 5.47
-1 4 11 62.05 4.31
-1 -4 11 56.9 4.59
-1 4 11 67.99 5.62
-1 -4 11 63.59 7.06
-2 17 4 4.95 2.15
-2 17 4 4.29 0.27
2 17 -4 5.45 1.72
-2 17 4 3.56 1.15
-2 -17 4 4 0.79
-2 -17 4 4.95 1.55
-7 -6 3 32.95 4.18
-7 6 3 32.58 5.03
-7 -6 3 36.82 3.08
7 6 -3 32.03 1.71
-7 6 3 33.28 4.26
4 15 1 63.93 5
-4 15 -1 60.76 4.85
4 15 1 50.58 3.72
4 15 1 55.67 4.12
6 9 -6 0.78 0.49
-6 -9 6 2.37 1.29
6 9 -6 3.93 1.04
-6 9 6 2.55 1.11
-6 9 6 3 1.05
-6 -9 6 1.71 0.91
-5 2 10 0.35 0.69
5 2 -10 0.39 0.25
-5 -2 10 0.6 0.92
-5 2 10 0.75 0.76
-5 -2 10 0.66 0.93
5 2 -10 -0.02 0.11
6 6 3 31.16 4.25
-6 6 -3 33.02 6.19
-6 -6 -3 35.72 4.6
-6 -8 -2 9.37 3.36
-6 8 -2 10.37 3.44
6 8 2 7.98 2.82
5 7 5 132.6 7.28
5 7 5 133.7 6.51
-5 7 -5 132.45 4.64
-4 11 -5 -0.4 1.14
4 11 5 0.56 1.21
4 11 5 1.47 1.08
1 -16 5 247.19 4.93
1 16 5 266.89 7.9
-1 16 -5 244.97 7.81
1 16 5 274.8 10.35
0 0 11 0 0.37
0 0 11 -0.08 0.81
-7 6 2 -0.21 0.53
-7 6 2 0.35 0.8
7 6 -2 1.12 0.87
-7 -6 2 0.75 0.76
-7 -6 2 0.45 0.5
-3 17 1 12.19 3.39
3 17 -1 15.17 5.18
3 17 -1 5.71 1.51
3 17 -1 10.85 2.64
-3 17 1 8.62 3.04
-7 4 0 23.27 3.85
7 4 0 19.54 3.47
-7 -4 0 18.24 2.87
-7 -4 0 21.45 6.27
4 9 6 318.42 7.31
-4 9 -6 293.16 7.3
4 9 6 317.07 7.91
6 10 -5 96.3 3.4
-6 10 5 84.64 6.2
-6 -10 5 87.17 2.43
-6 10 5 91.87 2.95
-6 -10 5 85.93 6.56
6 10 -5 86.84 5.68
2 10 8 69.75 6.03
2 10 8 65.95 5.37
2 -10 8 66.76 5.33
2 15 5 43.05 6.9
2 15 5 42.7 3.74
-6 2 -4 2.68 1.37
6 2 4 1.84 1.34
6 -2 4 3.38 1.42
-6 -2 -4 2.28 1.65
-5 12 -2 2.6 1.95
5 12 2 1.49 1.6
5 12 2 2.25 0.98
0 -1 11 1.17 0.89
0 1 11 0.1 0.41
-7 3 6 39.25 5.98
-7 -3 6 36.63 3.52
-7 3 6 36.01 7.13
-7 -3 6 39.63 5.53
3 -7 8 53.74 4.58
3 7 8 55.8 4.91
3 7 8 61.84 4.9
1 18 2 1.15 0.86
1 18 2 0.3 0.71
1 18 2 0.16 0.3
-1 18 -2 -0.11 0.95
-1 18 -2 0.38 0.38
-5 7 9 95.14 3.65
5 7 -9 78.88 5.23
-5 7 9 83.06 5.93
-5 -7 9 84.48 5.93
-5 -7 9 88.98 4.53
2 16 4 228.16 9.06
-2 16 -4 220.79 5.12
2 16 4 236.79 9.02
4 -6 7 141.16 5.34
4 6 7 138.93 4.73
4 6 7 153.03 7.41
-7 5 5 636.74 13.17
7 5 -5 614.17 11.7
-7 5 5 648.98 12.91
-7 -5 5 639.01 12.17
-7 -5 5 635.4 14.07
5 12 -6 69.24 4.84
-5 -12 6 67.25 4.68
-5 12 6 72.01 5.09
-5 12 6 69.47 5.3
-5 -12 6 64.28 6.42
-3 4 11 85.18 6.02
-3 4 11 66.49 11.62
3 -4 -11 69.07 5.22
-3 4 11 86.44 7.58
-3 -4 11 81.67 6.18
-3 17 2 87.24 3.95
-3 -17 2 90.94 3.01
-3 17 2 96.6 3.18
3 17 -2 106.76 5.53
-6 11 2 16.67 2.13
6 11 -2 14.67 1.55
-6 -11 2 19.03 2.96
-6 -11 2 15.08 1.55
-6 11 2 16.36 4.17
6 11 -2 14.34 3.42
-2 -5 11 35.45 3.61
-2 5 11 36.12 4.56
-2 -5 11 31.7 5.4
-2 5 11 30.8 2.24
-2 5 11 34.15 5.47
-3 -15 6 45.77 5.12
3 15 -6 42.02 5.39
-3 15 6 43.66 3.79
-3 -15 6 38.2 2.52
-3 15 6 46.22 3.38
-3 15 6 40.85 3.87
5 -3 6 2.28 1.31
-5 3 -6 1.54 0.99
5 3 6 2.46 1.08
2 7 9 9.02 3.03
2 7 9 10.86 3.01
2 -7 9 8.45 2.95
3 10 7 91.22 5.6
3 10 7 85.33 6.54
3 -10 7 84.04 6.33
-7 -6 4 338.08 9.39
-7 6 4 338.7 7.31
-7 -6 4 343.92 7.82
7 6 -4 333.71 8.13
-7 6 4 350.68 9.5
3 12 6 94.14 4.19
3 12 6 94.87 6.9
1 15 6 180.54 6.69
1 15 6 177.69 7.43
1 -15 6 165.73 4.7
-2 -9 10 37.24 3.03
-2 9 10 40.4 4.42
-2 9 10 41.82 4.43
-2 -9 10 41.58 4.62
-2 9 10 39.01 5.78
-6 11 3 147.49 5.91
6 11 -3 142.31 3.39
-6 -11 3 144.7 5.31
-6 -11 3 130 3.59
-6 11 3 140.29 5.06
6 11 -3 142.58 5.41
-7 0 -1 134.17 5.45
7 0 1 135.88 4.78
-5 11 -3 2.76 1.51
5 11 3 4.95 1.8
5 11 3 4.76 2.46
-3 -14 7 90.2 3.36
-3 14 7 84.12 5.84
-3 14 7 91.94 4.62
3 14 -7 92.06 3.45
-3 14 7 88.86 4.02
-3 -14 7 75.45 5.02
2 18 -1 0.95 0.31
2 18 -1 0.1 0.91
-2 18 1 0.97 0.85
-2 18 1 -0.28 0.95
7 -1 1 3.16 2.56
-7 1 -1 4.54 1.84
-7 -1 -1 3.89 1.25
7 1 1 2.86 2.73
0 2 11 3.64 1.37
0 -2 11 4.59 1.01
0 -2 11 2.68 0.87
0 2 11 0.84 0.8
0 8 10 5.56 1.98
0 8 10 6.06 2.23
0 -8 10 4.69 1.52
3 17 0 152.32 4.91
-3 17 0 155.25 5.54
3 17 0 149.99 6.41
-3 17 0 148.26 6.1
-1 -18 3 45.59 1.69
-1 18 3 44.72 2.05
1 18 -3 51.51 4.23
-1 18 3 47.02 3.72
0 18 3 31.43 2.97
0 18 3 32.17 3.1
0 18 -3 35.53 3.15
0 18 3 34.96 2.42
0 -18 3 29.52 1.04
-5 -11 7 14.37 1.23
5 11 -7 12.17 2.65
-5 -11 7 20.91 4.59
-5 11 7 15.8 2.52
-5 11 7 16.34 2.33
-1 17 -4 0.39 0.87
1 17 4 1.45 0.72
1 -17 4 0.32 0.42
1 17 4 0.47 0.43
1 17 4 1.28 1.67
-1 -9 10 14.89 1.62
-1 9 10 21.04 3.31
-1 9 10 18.35 3.14
-1 9 10 19.75 3.4
-1 -9 10 18.15 4.16
1 6 10 1.26 0.79
1 -6 10 1.84 1.21
1 6 10 2.83 1.37
-2 18 0 21.62 6.61
2 18 0 26.24 4.46
2 18 0 17.64 2.06
2 18 0 25.53 4.76
-2 18 0 22.3 2.15
-6 -8 7 72.95 2.44
6 8 -7 73.68 2.77
-6 -8 7 73.19 2.73
-6 8 7 80.79 3.5
-6 8 7 77.52 5.43
6 8 -7 68.17 2.17
-6 3 -4 67.64 3.67
6 -3 4 60.68 3.77
6 3 4 63.04 4.57
-6 -3 -4 64.38 4.06
-6 0 9 0.13 0.96
-6 0 9 0.68 0.65
5 13 1 100.96 4.43
-5 13 -1 92.49 3.55
5 13 1 98.86 4.02
1 -12 8 61 4.76
1 12 8 60.65 4.83
1 12 8 67.13 5.47
-4 7 10 34.81 2.39
-4 -7 10 34.01 3.35
-4 7 10 38.02 5.28
-4 7 10 33.54 3.3
0 -13 8 39.52 3.62
0 13 8 43.92 2.94
0 13 8 38.08 3.38
0 -13 8 39.92 3.64
-3 -11 9 11.31 4.61
-3 11 9 9.38 2.64
-3 11 9 11.16 2.12
-3 11 9 11.55 3.95
-3 11 9 11.19 3.12
-1 -16 6 170.96 4.52
-1 16 6 181.92 7.43
-1 16 6 175.11 7.18
-1 16 6 178.32 5.43
-1 16 6 175.16 4.35
1 16 -6 169.26 5.51
5 13 -5 9.79 3.1
-5 -13 5 12.1 1.22
-5 13 5 11.8 1.93
-5 -13 5 13.02 2.63
-5 13 5 9.97 3.55
-4 14 6 69.76 3.07
-4 -14 6 70.25 2.43
-4 14 6 74.45 5.01
-4 -14 6 76.33 3.41
-4 14 6 68.59 3.89
4 14 -6 79.82 2.94
0 -11 9 26.34 3.61
0 11 9 33.07 4.93
0 11 9 31.55 2.84
0 -11 9 31.43 4.24
-1 -5 11 68.94 3.05
-1 5 11 57.14 4.94
-1 -5 11 62.17 6.45
-1 5 11 61.05 7.47
-1 5 11 68.78 3.76
-6 -1 9 3.79 1.94
-6 -1 9 4.18 1.45
-6 1 9 4.63 1.81
6 1 -9 1.78 0.91
-6 1 9 4.46 1.7
6 6 -8 62.5 2.22
6 6 -8 63.45 2.87
-6 -6 8 66.19 3.41
-6 6 8 71.05 3.56
-6 -6 8 65.14 3.85
-6 6 8 68.24 5.72
7 2 1 186.23 7.84
-7 -2 -1 181.93 6.23
-7 2 -1 190.95 5.84
-6 -11 1 8.71 1.97
6 11 -1 8.55 3.03
-6 11 1 9.86 3.58
-6 -11 1 8.34 1.9
6 11 -1 9.51 3.72
-7 -6 1 6.03 1.86
-7 -6 1 5.04 1.68
7 6 -1 6.03 1.86
-7 6 1 5.02 2.22
-7 6 1 3.97 1.96
2 14 6 36.94 3.08
2 14 6 38.95 3.24
3 0 9 62.07 6.27
5 14 -2 126.42 3.62
5 14 -2 128.07 4.28
-5 14 2 127.18 5.49
-5 -14 2 129.85 6.3
4 13 -7 15.14 3.02
-4 13 7 15.01 4.58
-4 13 7 18.16 3.24
-4 -13 7 16.88 2.39
-4 13 7 16.81 2.38
-4 -13 7 13.71 1.82
2 18 -2 17.28 4.53
-2 18 2 15.3 1.51
-2 -18 2 14.05 1.06
-2 18 2 13.55 4
-7 -4 6 276.96 10.21
-7 4 6 264.93 11.48
-7 4 6 267.57 7.62
-7 -4 6 272.58 7.37
-4 0 11 0.51 0.45
-4 0 11 0.03 0.55
3 1 9 487.55 12.28
3 -1 9 476.29 12.93
3 1 9 474 13.23
-3 16 5 36.72 2.88
-3 -16 5 33.67 2.94
-3 16 5 33.37 2.01
-3 16 5 30.82 1.89
3 16 -5 36.03 4.56
0 3 11 23.38 5.29
0 -3 11 24.32 3.84
0 -3 11 22.7 1.8
0 3 11 21.3 2.5
-4 -1 11 1.42 1.13
-4 1 11 0.4 0.81
-4 1 11 -0.56 0.58
-6 -11 4 39.69 1.9
-6 11 4 39.3 2.79
6 11 -4 37.58 2.39
6 11 -4 35.17 2.36
-6 -11 4 42.81 5.97
-6 11 4 37.74 4.84
-7 -5 0 136.02 4.79
-7 5 0 130.09 4.64
7 5 0 124.57 4.61
-7 -5 0 126.09 4.64
-5 4 -6 293.32 9.58
5 4 6 316.92 10.49
5 -4 6 297.3 10.28
-3 -17 3 23.17 1.5
3 17 -3 25.87 5.36
-3 17 3 23.85 2.96
-3 17 3 24.3 1.8
2 -17 3 84.01 2.22
2 17 3 91.67 4.53
-2 17 -3 85.91 3.45
-2 17 -3 91.53 5.32
2 17 3 100.91 5.26
-6 2 9 0.95 1.14
6 2 -9 -0.04 0.24
-6 -2 9 1.17 1.7
-6 2 9 0.87 1.29
-6 -2 9 0.1 0.64
-5 -14 1 201.6 5.9
5 14 -1 208.83 6.11
5 14 -1 218.93 5.69
-5 14 1 205.68 6.1
-1 15 7 3.1 1.18
-1 -15 7 3.03 1.3
-1 15 7 2.38 1.74
1 15 -7 1.63 0.58
-1 15 7 3.15 1.05
1 17 -5 44.47 4.5
-1 17 5 50.08 5.24
-1 17 5 45.64 1.76
-1 17 5 43.22 2.23
-1 -17 5 45.39 2.75
-1 17 5 54.95 7.53
5 14 -3 77.4 2.39
-5 14 3 69.35 7.37
-5 14 3 71.65 2.87
5 14 -3 76.42 3.35
-5 -14 3 70.53 2.7
-5 -14 3 76.95 3.98
-3 5 11 146.04 4.25
-3 -5 11 166.5 6.81
-3 -5 11 144.73 3.8
-3 5 11 150.06 5.17
-3 5 11 168.99 5.28
4 14 3 0.96 0.74
-4 14 -3 0.48 0.56
4 14 3 -0.14 0.76
-5 4 10 127.28 4.86
-5 -4 10 136.14 4.59
-5 -4 10 135.58 4.56
-5 4 10 140.21 4.79
-7 7 3 80.67 3.34
-7 -7 3 89.1 4.07
7 7 -3 79.07 3.53
-7 -7 3 84.8 3.13
-7 7 3 82.63 3.28
3 -2 9 35.91 7.38
3 2 9 42.59 5.2
3 2 9 46.91 3.02
-4 16 2 0.73 0.79
-4 16 2 0.95 1.08
4 16 -2 0.25 0.87
-4 -16 2 0.38 0.56
4 16 -2 0.29 0.48
-7 3 -1 2.8 1.92
-7 -3 -1 3.58 1.62
7 3 1 3.06 2.06
4 16 -1 21.7 3.63
-4 -16 1 21.31 2.26
-4 16 1 22.11 2.29
4 16 -1 21.72 6.66
4 10 -9 16.04 1.45
-4 -10 9 22.86 3.77
-4 -10 9 15.57 1.21
-4 10 9 20.43 3.67
-4 10 9 21.03 3.23
-4 10 9 19.64 3.35
-4 -2 11 75.45 8.74
-4 2 11 66.82 4.59
-4 2 11 74.05 5.11
-6 7 -3 12.93 4.2
6 7 3 12.11 4.94
-6 -7 -3 7.86 3.06
6 7 3 9.26 3.63
2 0 10 303.05 9.21
2 0 10 288.2 9.11
-7 6 5 21.15 8.44
-7 6 5 25.39 2.71
7 6 -5 21.84 3.15
-7 -6 5 23.86 5.92
-7 -6 5 26.95 4.14
-3 -13 8 3.6 1.66
3 13 -8 4.59 1.06
-3 13 8 6.15 2.37
-3 13 8 6.94 2.42
-3 13 8 6.78 3.68
6 4 4 0.9 1.66
6 -4 4 0.78 1.97
-6 -4 -4 3.53 1.33
-6 4 -4 3.16 1.13
-2 18 -1 0.53 1.04
2 18 1 0.42 0.66
2 18 1 0.11 0.17
-2 18 -1 0.61 0.49
2 18 1 1.49 1.27
1 10 9 69.54 4.25
1 10 9 60.13 4.35
1 -10 9 59.94 3.8
3 15 4 20.28 5.38
-3 15 -4 22.47 3.99
3 15 4 21.52 4.52
1 14 7 -0.27 0.88
1 14 7 0.34 0.74
-7 7 2 16.25 3.9
-7 -7 2 13.64 3.82
-7 7 2 13.84 3.56
7 7 -2 17.99 3.62
-7 -7 2 17.58 3.59
4 13 4 122.93 6
4 13 4 121 5.43
-4 13 -4 113.69 4.33
-2 -16 6 195.26 5.03
-2 16 6 185.27 8.94
2 16 -6 197.13 5.59
-2 16 6 189.53 6.57
-2 16 6 193.6 4.73
-2 -6 11 0.89 0.96
-2 -6 11 0.93 0.4
-2 6 11 -0.4 0.52
-2 6 11 1.68 1.13
-2 6 11 0.68 0.68
6 10 1 32.12 2.52
-6 10 -1 27.06 1.93
6 10 1 28 2.22
-6 -10 -1 29.78 1.97
2 1 10 61.98 5.55
2 -1 10 52.46 3.66
2 1 10 58.01 3.85
2 -1 10 58.22 3.68
-7 0 7 15.64 5.1
-7 0 7 12.18 3.78
0 16 6 0.14 1.34
0 -16 6 0.38 0.41
0 16 6 0.63 1.04
-4 15 5 348.53 9.57
-4 15 5 337.47 7.78
-4 -15 5 335.58 9.69
-4 15 5 342.11 12.27
4 15 -5 377.71 10.27
-5 10 -4 14.53 3.99
5 10 4 15.05 4.3
5 10 4 15.34 4.64
-3 -9 10 72.16 4.33
-3 9 10 78.02 3.2
-3 9 10 75.51 7.44
-3 9 10 66.98 3.94
-3 17 -1 285.73 7.06
-3 17 -1 276.25 8.99
3 17 1 317.45 8.01
3 17 1 314.89 10.22
-7 1 7 98.65 4.01
-7 -1 7 102.7 3.8
-7 -1 7 91.44 4.97
-7 1 7 93.21 5.14
4 7 7 29.96 5.04
4 -7 7 31.26 3.76
4 7 7 26.91 4.41
-2 -15 7 44.26 1.69
-2 15 7 46.68 3.34
2 15 -7 50.33 5.75
-2 -15 7 48.53 2.94
-2 15 7 54.84 3.79
-2 15 7 47.1 4.55
-2 15 7 49.38 5.5
-5 8 -5 0.82 0.83
5 8 5 0.3 1.51
-6 3 9 0.18 0.78
-6 -3 9 1.45 1.32
6 3 -9 0.77 0.34
-6 3 9 0.28 0.55
-6 -3 9 2.13 1.02
0 17 5 23.13 1.28
0 -17 5 25.78 2.22
0 17 5 24.73 3.39
0 17 5 27.06 6.45
0 17 -5 23.85 5.31
-5 10 8 2.06 0.85
-5 -10 8 2.82 1.51
-5 10 8 2.54 1.17
5 10 -8 1.08 0.53
-5 -10 8 2.24 1.19
0 19 0 0.16 0.1
0 19 0 0.69 0.95
7 7 -4 30.42 2.47
-7 7 4 30.58 5.05
-7 7 4 26.27 5.25
-7 -7 4 33.59 2.15
-7 -7 4 32.05 2.95
-2 12 9 49.91 3.63
-2 -12 9 45.82 4.27
-2 12 9 46.02 4.3
-2 -12 9 41.74 1.9
-2 12 9 45.77 4.68
0 -4 11 35.85 2.27
0 4 11 36.32 3.21
0 -4 11 32.79 1.73
0 4 11 34.89 2.83
3 8 8 164.78 6.54
3 -8 8 176.99 6.76
3 8 8 183.96 6.85
-1 12 9 80.43 5.15
-1 -12 9 84.2 4.83
-1 -12 9 73.47 2.34
-1 12 9 74.84 3.27
-1 12 9 76.2 2.98
2 -2 10 206.81 8.44
2 2 10 202.36 7.09
2 2 10 191.89 6
5 8 -9 15.15 1.77
-5 -8 9 20.49 5.03
-5 8 9 20.76 3.47
-5 8 9 19.64 3.22
-5 -8 9 16.27 3.18
6 9 2 8.37 2.32
6 9 2 5.77 2.1
-6 9 -2 6.78 2.45
-6 -9 -2 4.54 2.12
-3 14 -5 6.92 2.87
3 14 5 10.44 3.35
3 14 5 8.81 3.13
3 -3 9 2.93 1.75
3 3 9 4.77 1.85
3 3 9 5 1.86
-4 -12 8 33.78 3.18
4 12 -8 37.16 3.47
-4 12 8 45.08 2.92
-4 12 8 39.3 2.9
-4 12 8 43.95 3.84
-4 -12 8 45.61 4.73
4 15 2 0.86 1.23
4 15 2 1.92 1.08
-4 15 -2 2.4 0.93
-4 16 3 6.36 2.72
4 16 -3 3.58 1.29
-4 -16 3 8.65 2.17
-4 16 3 9.64 3.31
4 16 -3 8.5 2.69
-7 -5 6 280.4 7.96
-7 5 6 272.36 7.75
-7 5 6 294.33 8.13
-7 -5 6 282.76 7.35
7 5 -6 276.65 7.3
-4 -3 11 0.33 0.8
-4 3 11 3.29 1.32
-4 3 11 2.3 1.53
3 16 3 139.49 6.28
3 16 3 134.54 6.95
-3 16 -3 128.45 4.46
-7 -2 7 18.16 3.83
-7 2 7 15.98 4.87
-7 -2 7 18.71 2.77
-7 2 7 15.3 4.71
4 0 8 40.82 4
2 8 9 98.04 5.09
2 -8 9 97.8 4.26
2 8 9 93.17 4.88
-2 18 3 37.36 3.15
2 18 -3 36.68 7.2
-2 -18 3 32.62 2.04
-2 18 3 34.15 5.95
1 18 3 11.05 3.92
1 18 3 9.57 2.72
-1 18 -3 12.55 3.97
-1 18 -3 9.43 1.64
1 -18 3 8.93 0.56
1 18 3 9.35 1.77
-6 -11 0 129.11 4
6 11 0 129.44 5.38
6 11 0 139.64 4.72
-6 11 0 128.7 4.83
-1 -6 11 274.82 6.71
-1 6 11 296.68 9.25
-1 -6 11 285.59 7.73
-1 6 11 297.05 7.24
-1 6 11 279.34 8.73
-6 10 6 21.56 2.01
-6 -10 6 15.46 2.04
6 10 -6 16.85 2.25
-6 -10 6 21.04 3.23
-6 10 6 14.8 3.35
-4 16 0 3.6 1.12
4 16 0 4.41 1.76
4 16 0 5.56 1.53
4 -1 8 13.96 4.53
4 1 8 14.93 4.03
0 19 -1 16.67 4.03
0 19 1 16.89 4.96
0 19 1 14.39 1.67
0 19 -1 12.18 0.79
1 -7 10 3.7 1.16
1 7 10 7.8 2.01
1 7 10 5.85 2.5
5 5 6 14.12 4.9
5 5 6 11.65 3.21
-5 5 -6 7.87 2.79
5 -5 6 11.61 4.32
-5 14 0 85.35 5.53
5 14 0 88.54 4
5 14 0 94.74 4.74
7 4 1 251.39 8.8
-7 -4 -1 246.45 6.79
-7 4 -1 248.78 7.13
5 14 -4 41.53 2.65
-5 -14 4 40.1 1.7
-5 14 4 41.79 2.4
-5 14 4 43.89 4.26
5 14 -4 41.76 1.97
-5 -14 4 37.39 4.28
-2 17 5 46.96 2.31
-2 17 5 50.72 2.58
2 17 -5 51.15 4.11
-2 -17 5 45.16 2.49
-2 17 5 55.4 3.83
4 10 6 31.29 3.31
-4 10 -6 27.03 4.55
4 10 6 32.39 7.27
0 15 7 1.87 1.61
0 15 7 1.18 1.38
0 -15 7 0.69 0.46
-6 7 8 224.41 6.83
6 7 -8 220.74 5.51
-6 -7 8 237.14 6.31
-6 -7 8 227.44 6.43
-6 7 8 227.87 6.28
-5 5 10 15.68 3.81
-5 5 10 13.92 4.09
-5 -5 10 10.57 3.13
-5 -5 10 13.29 2.91
-7 6 0 19.97 2.66
-7 -6 0 20.3 2.46
-7 -6 0 20.53 1.56
7 6 0 18.51 2.54
-7 7 1 125.85 5.2
-7 -7 1 127.52 5.77
7 7 -1 131.64 4.95
-7 -7 1 129.32 4.93
-7 7 1 133.31 6.02
0 9 10 14.69 4.32
0 9 10 19.8 5.4
0 -9 10 12.82 2.88
2 -3 10 1.57 1.47
2 3 10 1.09 1.56
-4 8 10 12.72 4.61
-4 8 10 14.1 1.72
-4 8 10 14.07 3.91
-4 -8 10 18.78 4.01
-6 11 5 107.26 5.64
6 11 -5 111.99 3.94
-6 -11 5 103.03 3.11
-6 -11 5 112.79 3.9
-6 11 5 103.96 4.07
6 11 -5 106.57 2.6
4 -2 8 13.52 3.63
4 2 8 12.93 4.56
2 11 8 45.04 3.42
2 11 8 57.23 5.84
2 -11 8 52.88 3.52
-2 -10 10 30.57 3.76
-2 -10 10 16.98 1.33
-2 10 10 28.29 2.95
-2 10 10 26.36 4.03
-2 10 10 34.29 5.26
-6 -5 -4 24.57 1.96
-6 5 -4 22.84 3.8
6 -5 4 24.4 3.33
6 5 4 23.24 4.31
-6 -4 9 178.79 5.36
-6 4 9 167.18 5.95
-6 4 9 185.74 5.56
-6 -4 9 172 5.27
-1 -14 8 1.06 0.52
-1 14 8 0.74 1.06
-1 14 8 -0.03 0.49
-1 -14 8 0.05 0.47
-1 14 8 0.23 1.39
-1 18 4 92.8 6.95
-1 -18 4 85.23 2.26
1 18 -4 91.5 5.12
-1 18 4 90.62 2.9
-3 6 11 127.66 4.27
-3 -6 11 114.65 2.99
-3 6 11 129.46 4.92
-3 6 11 135.25 10.14
-3 -6 11 138.33 4.85
2 13 7 35.47 3.27
2 13 7 36.31 4.44
-1 19 0 1.67 0.54
1 19 0 1.22 1.56
-1 19 0 0.23 1.16
-7 3 7 11.52 3.16
-7 3 7 11.33 3.55
-7 -3 7 10.94 2.93
-7 -3 7 10.6 2.3
-3 17 4 64.7 2.28
-3 -17 4 67.31 3.34
-3 17 4 66.19 8.41
-3 17 4 73.28 3.11
3 17 -4 66.51 3.42
-6 9 7 15.45 5.43
-6 9 7 13.5 2.51
-6 -9 7 14.25 2.13
-6 -9 7 15.23 2.94
6 9 -7 15.17 2.17
4 12 5 84.02 4.12
4 12 5 77.64 4.86
-4 12 -5 77.3 3.41
-1 19 1 8.44 2.32
1 19 -1 12.1 5.78
-1 19 1 10.21 2.62
3 -4 9 0.67 0.95
3 4 9 0.83 0.95
3 4 9 1.43 0.97
3 11 7 10.48 3.53
3 11 7 12.99 4.08
-2 -14 8 0.86 0.6
-2 14 8 0.27 0.86
-2 14 8 0.03 0.55
-2 -14 8 0.31 0.23
-2 14 8 0.62 1.17
-2 14 8 1.22 0.71
2 14 -8 0.24 0.62
-4 -4 11 5.59 2.9
-4 4 11 1.6 0.76
-4 4 11 6.39 1.94
-1 -10 10 16.3 4.89
-1 10 10 12.71 4.32
-1 -10 10 13.57 1.97
-1 10 10 19.61 6.25
-1 10 10 16.19 4.62
0 18 -4 56.78 4.32
0 18 4 49.87 2.62
0 18 4 48.94 1.69
0 -18 4 47.47 1.95
0 18 4 53.54 3.64
0 18 4 55.54 5.07
0 5 11 17.94 2.92
0 5 11 17.31 2.29
0 -5 11 14.69 1.86
0 -5 11 17.05 4.23
6 12 -2 0.49 1.09
6 12 -2 1.23 0.78
-6 -12 2 1.32 0.76
-6 12 2 0.13 0.73
-6 -12 2 0.47 0.61
-7 7 5 36.05 2.87
-7 7 5 37.13 4.16
7 7 -5 34.26 2.25
-7 -7 5 29.13 3.79
-7 -7 5 38.11 2.62
7 7 -5 33.45 2.67
-6 12 3 20.25 2.5
6 12 -3 24.16 3.79
-6 12 3 18.93 3.3
-6 -12 3 17.98 2.5
-6 -12 3 21.7 1.38
6 12 -3 21.36 1.43
5 13 2 5.24 2.28
5 13 2 7.04 2.13
-5 13 -2 7.57 2.12
2 18 2 33.16 4.54
-2 18 -2 30.11 1.97
-2 18 -2 32.83 3.79
2 18 2 36.41 4.23
2 18 2 32.73 1.37
-2 7 11 186.07 8.25
-2 7 11 172.44 5.37
-2 7 11 178.65 5.16
-2 -7 11 179.77 5.57
-2 -7 11 169.26 4.18
4 3 8 80.82 3.96
4 -3 8 80.03 3.7
4 3 8 79.58 3.73
-5 12 -3 28.82 5.34
5 12 3 31.55 2.94
5 12 3 35.39 3.91
7 8 -3 8.91 2.64
-7 -8 3 11.34 4.18
-7 8 3 8.55 2.63
-7 -8 3 7.25 3.54
-7 8 3 5.16 2.26
7 8 -3 10.98 2.52
-5 13 6 5.61 3.93
-5 -13 6 3.31 1.01
5 13 -6 3.3 1.27
-5 -13 6 5.15 1.61
-5 13 6 4.16 1.55
0 19 2 7.92 4.38
0 19 2 5.43 1.72
0 19 -2 5.55 3.1
-6 8 -3 0.35 1
6 8 3 0.21 0.81
6 8 3 0.11 0.71
-7 0 -2 0.58 0.64
7 0 2 0.36 0.91
1 19 1 29.16 4.19
-1 19 -1 26.95 2.61
1 19 1 26.5 0.7
-1 19 -1 28.54 1.54
5 12 -7 4.49 1.46
-5 12 7 6.32 2.57
-5 12 7 4.24 2.09
-5 -12 7 5.3 2.13
-5 -12 7 4.95 1.62
3 13 6 67.05 4.79
3 13 6 68.65 4.4
4 16 -4 14.39 4.58
-4 16 4 15.08 1.02
-4 16 4 13.58 3.24
-4 16 4 14.86 1.87
-4 -16 4 14.72 1.55
-7 5 -1 38.09 5.1
7 5 1 39.52 3.15
-7 -5 -1 35.93 2.64
-7 8 2 2.12 1.13
7 8 -2 0.99 0.97
-7 -8 2 1.74 1.03
-7 -8 2 0.61 0.6
-7 8 2 2.86 1.05
7 8 -2 2.06 0.8
-7 -6 6 0.33 0.88
-7 6 6 1.16 1.35
-7 6 6 0.91 1.3
7 6 -6 0.17 0.6
-7 -6 6 0.58 1
2 4 10 6.99 2.27
2 -4 10 6.95 2.28
2 4 10 5.96 2.42
-7 -1 -2 26.78 4.18
-7 1 -2 27.52 2.1
7 -1 2 26.42 2.58
7 1 2 28.98 3.69
3 17 2 43.3 3.29
3 17 2 43.82 3.28
-3 17 -2 44.51 2.73
1 19 -2 54.08 4.47
-1 19 2 49.84 2.15
-1 19 2 51.58 5.77
-3 12 9 67.53 3.07
-3 12 9 66.31 4.84
-3 12 9 77.23 3.79
-3 12 9 72.37 6.48
-3 -12 9 76.02 3.37
3 12 -9 66.43 2.63
-7 -4 7 26.41 4.87
-7 4 7 29.51 2.73
-7 -4 7 24.4 5.78
-7 4 7 24.26 3.15
-5 6 -6 1.13 0.86
5 6 6 1.18 1.19
5 6 6 1.75 1.13
4 8 7 160.93 6.2
4 8 7 162.75 6.57
4 -8 7 165.71 7.27
0 12 9 122.4 5.25
0 -12 9 112.52 3.93
0 -12 9 108.21 6.23
0 12 9 112.82 4.77
-6 -12 1 9.93 3.75
6 12 -1 10.3 4.15
6 12 -1 6.99 2.98
-6 12 1 8.98 3.22
-6 -12 1 9.11 2.76
-4 16 -1 163.14 4.91
4 16 1 174.33 6.32
4 16 1 160.77 6.36
-7 8 4 66.72 3.21
7 8 -4 60.76 4.45
-7 -8 4 65.01 5.21
-7 -8 4 65.09 3.26
7 8 -4 63.48 4.28
-7 8 4 62.41 4.02
-1 7 11 17.59 2.89
-1 7 11 21.27 3.98
-1 7 11 16.77 4.16
-1 -7 11 15.62 3.09
-1 -7 11 22.68 4.9
-6 5 9 11.6 4.12
6 5 -9 12.12 2.27
-6 -5 9 11.54 3.41
-6 5 9 13.34 4.06
-6 -5 9 13.59 2.82
1 13 8 7.57 3.09
1 -13 8 6.11 1.41
1 13 8 5.91 2.37
-5 -6 10 38 5.7
-5 -6 10 34.76 2.4
-5 6 10 37.53 5.69
-5 6 10 41.97 2.94
-7 -2 -2 1.08 1.02
7 2 2 0.49 0.99
7 -2 2 1.4 1.14
-7 2 -2 0.47 0.74
2 16 5 39.1 4.67
2 16 5 43.32 3.32
1 0 11 120.64 5.27
1 0 11 110.24 3.49
-5 9 -5 32.3 4.68
5 9 5 31.13 2.39
5 9 5 30.94 4.03
-6 -12 4 117.46 7.17
-6 12 4 111.83 3.74
-6 12 4 112.99 4.91
-6 -12 4 110.31 3.03
6 12 -4 111.45 4.37
6 12 -4 113.74 2.98
3 5 9 44.19 2.84
3 5 9 43.42 2.66
3 -5 9 51.37 3.62
-3 15 7 43.46 3.65
-3 15 7 37.24 2.78
-3 15 7 39.37 2.55
-3 -15 7 44.45 3.51
-3 -15 7 35.87 1.9
3 15 -7 38.02 2.53
1 -1 11 57.28 2.86
1 1 11 57.76 2.66
1 -1 11 61.69 3.31
1 1 11 61.43 3.5
-3 10 10 136.69 4.53
-3 10 10 132.35 4.82
-3 10 10 146.03 7.77
-3 -10 10 137.62 8.65
-6 6 -4 43.49 2.8
6 6 4 43.22 3.59
5 14 1 5.52 2.27
5 14 1 4.46 2.05
-5 14 -1 6.86 2.16
-1 17 -5 95.23 4.84
1 -17 5 93.34 3.19
1 17 5 105.34 4.47
1 17 5 100.58 6.48
-4 11 9 1 1.24
-4 11 9 0.68 1.05
4 11 -9 -0.02 0.19
-4 -11 9 0.93 0.66
-4 -11 9 0.22 0.48
-4 11 9 0.59 0.66
-2 -18 4 46.12 2.37
-2 18 4 53 2.55
2 18 -4 52.6 6.05
-2 18 4 42.74 6.07
3 9 8 12.31 2.91
3 -9 8 20.28 4.46
3 9 8 16.16 6.37
-4 -5 11 104.35 5.07
-4 5 11 98.17 3.84
-4 5 11 95.6 6.08
-3 16 6 314.91 11
-3 16 6 318.25 9.29
-3 16 6 320.58 7.45
3 16 -6 326.93 8.26
-3 -16 6 324.99 7.67
-5 9 9 89.36 3.85
5 9 -9 92.74 2.44
-5 9 9 88.01 8.49
-5 -9 9 92.13 3.15
-5 -9 9 99.53 3.81
0 14 8 2.55 1.38
0 -14 8 1.5 1.1
0 -14 8 1.67 0.73
0 14 8 2.44 1.62
7 7 0 1.41 1.25
-7 7 0 -1.21 1.24
-7 -7 0 1.82 0.87
4 4 8 23.7 3.95
4 -4 8 23.55 5.34
4 4 8 24 5.86
1 -8 10 0.82 0.9
1 8 10 0.92 1.11
1 8 10 0.9 0.84
-5 -14 5 32.31 4.45
-5 14 5 31.1 3.36
-5 14 5 33.01 1.92
-5 -14 5 32.65 1.7
5 14 -5 35.28 4.61
1 16 6 42.05 3.49
1 16 6 45.59 4.87
1 -16 6 39.34 3.61
1 11 9 0.26 0.58
1 -11 9 0.71 0.96
-6 11 -1 47.88 4.26
6 11 1 46.51 4.28
6 11 1 46.47 3.37
2 17 4 193.77 9.47
-2 17 -4 178.74 6.21
2 17 4 198.57 10.74
2 9 9 2.33 0.94
2 -9 9 1.98 1.45
2 9 9 2.82 1.4
5 11 4 27.87 5.48
5 11 4 37.94 3.51
-5 11 -4 30.78 6.28
4 14 -7 0.17 0.61
-4 14 7 1.64 1.68
-4 -14 7 0.26 0.24
-4 14 7 -0.01 0.34
-4 14 7 0.64 0.77
-4 -14 7 0.12 0.59
-3 7 11 27.83 3.69
-3 7 11 24.39 3.66
-3 -7 11 19.19 1.37
-3 7 11 26.36 6.06
-3 -7 11 31.03 7.42
-6 -8 8 0.94 0.69
-6 -8 8 1.44 1.19
-6 8 8 1.69 1.57
6 8 -8 1.88 1.02
-6 8 8 1.21 1.49
3 18 -1 6.31 2.48
3 18 -1 4.41 1.24
-3 18 1 6.17 2.16
-3 18 1 5.48 1.51
-7 8 1 3.77 2
-7 -8 1 3.54 1.31
7 8 -1 4.01 1.57
7 8 -1 3.42 2.16
-7 -8 1 4.44 1.44
-6 10 -2 0.82 0.75
6 10 2 0.9 1.47
6 10 2 2.06 1.13
1 -2 11 0.88 0.43
1 2 11 2.09 1.38
1 2 11 0.22 0.4
1 -2 11 2.13 1.08
-4 -15 6 63.95 4.42
-4 15 6 63 2.61
-4 15 6 61.63 3.52
4 15 -6 65.6 3.14
-4 15 6 60.49 3.55
-5 11 8 -0.42 1.02
-5 -11 8 0.56 0.57
5 11 -8 0.11 0.33
-5 -11 8 1.57 1.37
-5 11 8 0.57 0.83
0 -6 11 12.32 2.96
0 6 11 13.54 4.13
0 6 11 13.59 2.14
-6 0 -5 1.41 1.3
6 0 5 0.93 1.42
-7 -3 -2 34.43 4.99
7 3 2 31.64 2.38
-7 3 -2 33.97 4.42
2 15 6 6.6 2.43
2 15 6 12.1 3.03
5 15 -2 2.9 2.8
5 15 -2 5.67 2.17
-5 -15 2 8.5 1.91
-5 15 2 7.04 2.48
-3 -18 2 143.49 3.71
-3 18 2 153.06 4.7
3 18 -2 144.2 6.72
-3 18 2 118.8 5.46
6 -1 5 86.62 4.17
6 1 5 88.27 6.14
-6 1 -5 86.4 3.81
-6 -1 -5 84.67 4.08
2 -5 10 33.43 3.07
2 5 10 31.94 3.58
2 5 10 33.33 2.54
1 19 2 15.68 4.33
-1 19 -2 12.31 1
1 19 2 14.63 4.37
-1 19 -2 11.6 3.86
1 19 2 12.14 1.61
-4 9 10 2.12 0.9
-4 -9 10 0.74 1.07
-4 9 10 0.42 0.79
-4 9 10 1.69 0.73
-2 0 12 0.96 0.91
-2 0 12 1.2 1.02
-7 5 7 1.66 1.94
-7 -5 7 2.87 0.85
-7 -5 7 1.54 0.89
-7 5 7 0.77 1.21
-7 -6 -1 234.75 8.71
7 6 1 231.07 8.8
-7 6 -1 234.2 8.92
3 18 0 526.06 8.82
-3 18 0 480.39 10.03
-3 18 0 468.21 14.74
3 18 0 490.81 5.89
-6 -11 6 57.67 2.15
-6 11 6 59.89 4.12
-6 11 6 58.29 2.14
6 11 -6 54.78 1.94
-6 -11 6 59.77 2.52
-2 1 12 -0.01 0.11
-2 -1 12 0.77 0.58
-2 1 12 0.89 0.32
-2 -1 12 2.66 1.35
-2 1 12 0.69 0.48
5 15 -1 1.39 1.13
-5 15 1 0.14 0.9
-5 -15 1 0.87 0.78
5 15 -1 0.54 0.59
1 17 -6 65.64 4.39
-1 17 6 67.06 3.19
-1 17 6 60.28 6.81
-1 17 6 73.57 3.19
-1 17 6 74.87 7.9
-1 -17 6 69.14 2.7
-5 -15 3 3.11 1.09
5 15 -3 1.93 1.3
5 15 -3 0.86 0.63
-5 15 3 1.88 0.93
-5 15 3 2.31 1.18
-3 14 8 13 1.94
-3 14 8 11.27 3.23
-3 -14 8 7.57 2.79
-3 14 8 10.95 3.01
3 14 -8 5.4 2.12
1 18 4 1.04 1.36
1 18 4 1.17 2.2
1 -18 4 0.65 0.45
-1 18 -4 0.92 0.87
1 18 4 0.67 0.52
6 -2 5 77.16 5.58
-6 -2 -5 80.97 4.26
-6 2 -5 75.84 3.81
6 2 5 74.63 7.8
4 15 3 20.87 4.86
-4 15 -3 16.72 5.31
4 15 3 16.64 6.4
0 10 10 12.89 3.67
0 10 10 13.8 4.68
0 -10 10 8.68 2.38
0 -10 10 10.75 2.93
-4 14 -4 42.15 2.21
4 14 4 48.92 5.91
4 14 4 49.66 3.87
-4 11 -6 1.68 0.65
4 11 6 3.43 1.45
4 11 6 2.64 1.15
-7 0 8 0.79 0.94
-7 0 8 1.05 1.13
-7 -8 5 2.1 1.62
7 8 -5 2.22 1.12
-7 8 5 1.55 0.6
-7 8 5 1.11 1.38
7 8 -5 2.67 1.01
-7 -8 5 1.66 0.87
1 -3 11 0.32 0.74
1 -3 11 0.69 0.43
1 3 11 1.02 0.71
1 3 11 1.09 1.32
-2 19 1 0.76 0.94
-2 19 1 0.87 1.21
2 19 -1 1.64 1.1
6 12 0 91.36 4.21
-6 -12 0 92.55 3.79
6 12 0 99.09 4.8
-6 12 0 98.28 4.5
-2 -13 9 1.51 0.9
-2 13 9 1.3 0.75
-2 13 9 5.27 1.82
-2 13 9 2.56 1.21
-2 -13 9 1.54 0.38
-7 -7 6 4.77 1.85
7 7 -6 2.91 0.92
-7 -7 6 3.43 2.9
-7 7 6 2.42 1.31
-7 7 6 2.11 1.75
7 7 -6 3.93 1.93
-2 8 11 0.55 0.52
-2 -8 11 1.26 0.46
-2 8 11 0.85 0.6
-2 8 11 0.72 0.77
-2 -8 11 1.51 0.58
-1 -13 9 22.62 5.08
-1 13 9 23.19 3.74
-1 -13 9 20.42 2.7
-1 13 9 23.25 4.22
-1 13 9 24.15 3.57
-1 19 3 33.91 3.56
1 19 -3 37.28 3.95
-1 19 3 34.03 2.18
0 19 3 3.81 1.51
0 19 3 3.07 1.27
0 19 -3 4.83 1.7
-7 1 8 1.27 1.26
-7 -1 8 1.03 0.77
-7 1 8 1.64 1.04
-1 16 7 13.53 4.9
-1 16 7 13.15 4.51
-1 16 7 12.64 2
-1 -16 7 10.07 2.43
1 16 -7 13.38 3.53
4 13 -8 16.71 3.34
-4 13 8 16.95 4.56
-4 13 8 18.45 5.2
-4 -13 8 20.51 3.4
-4 13 8 21.39 2.08
-4 -13 8 15.74 1.82
-3 -17 5 4.61 1.2
-3 17 5 5.05 2.27
-3 17 5 5.6 2.03
3 17 -5 6.14 1.86
-3 17 5 4.09 1.05
-6 -10 7 0.74 0.42
-6 10 7 1.22 0.85
-6 -10 7 0.49 1.07
6 10 -7 0.57 1.06
-6 10 7 2.26 1.07
5 0 7 32.4 5.76
6 6 -9 16.87 1.54
-6 6 9 16.53 5.06
-6 6 9 14.98 2.41
-6 -6 9 17.34 4.93
-6 -6 9 21.34 4.5
1 15 7 4.09 1.52
1 -15 7 2.94 1.23
1 15 7 4.6 1.25
-2 2 12 43.95 3.88
-2 -2 12 48.46 5.79
-2 -2 12 49.17 3.6
-2 2 12 42.76 1.17
-2 2 12 51.11 3.65
4 5 8 4.59 1.58
4 -5 8 5.74 1.65
4 5 8 5.62 2.66
5 7 6 31.9 3.99
5 7 6 35.12 3.66
-5 7 -6 36.78 2.81
5 -7 6 37.31 2.83
2 19 0 0.89 0.58
-2 19 0 0.19 0.58
2 19 0 1.02 1.07
-2 19 0 -0.03 0.92
-2 11 10 1.26 1.08
-2 11 10 0.3 0.78
-2 11 10 0.49 1.31
-2 -11 10 0.54 1.06
-2 -11 10 0.31 0.28
5 -1 7 43.9 4.18
5 1 7 42.13 4.22
-7 4 -2 41.8 2.32
7 4 2 44.93 2.63
-7 -4 -2 46.33 2.29
-7 9 3 5.65 2.82
7 9 -3 5.25 2.11
-7 -9 3 4.38 1.97
7 9 -3 7.2 3.07
-7 -9 3 4.82 1.69
-7 9 3 5.9 1.96
3 6 9 38.1 4.58
3 6 9 45.48 3.34
3 -6 9 39.82 2.55
-5 0 11 11.83 3.1
-5 0 11 11.32 3
-3 16 -4 46.99 3.49
3 16 4 55.21 3.92
3 16 4 51.66 3.44
-4 6 11 34.34 3.63
-4 6 11 40.41 3.39
-4 -6 11 42.41 4.6
-5 -7 10 46.09 3.11
-5 7 10 43.14 5.54
-5 7 10 44.46 2.4
-5 -7 10 46.42 5.7
6 9 3 0.35 0.72
6 9 3 -0.17 0.96
-6 9 -3 0.9 1.01
-6 -12 5 5.25 2.02
-6 -12 5 4.88 2.66
6 12 -5 3.73 0.87
-6 12 5 6.05 3.25
6 12 -5 5.15 2.28
-6 12 5 6.22 2.18
-7 2 8 169.58 7.04
-7 2 8 164.8 6.17
-7 -2 8 159.71 6.11
-7 -2 8 166.5 6.21
-4 16 5 30.28 3.07
-4 16 5 31.09 1.99
4 16 -5 24.42 5.73
-4 -16 5 29.02 3.23
-4 16 5 27.71 1.59
2 -12 8 40.59 4.49
2 12 8 44.69 3.59
2 12 8 38.99 3.41
-3 -18 3 27.01 1.77
-3 18 3 27.48 4.18
3 18 -3 27.06 4.24
-3 18 3 29.95 1.9
4 17 -2 30.37 5.99
-4 17 2 25.67 1.67
-4 17 2 30.22 8.23
4 17 -2 22.76 4.09
-4 -17 2 26.83 2.7
-2 18 -3 7.58 1.44
2 -18 3 5.05 1.37
2 18 3 11.21 3.46
2 18 3 7.32 2.88
-2 18 -3 6.28 2.57
-3 0 12 0.45 0.41
-3 0 12 -0.29 1
-5 -1 11 7.47 2.26
-5 -1 11 5.95 2.35
-5 1 11 10.47 3.94
-5 1 11 6.97 2.75
-2 19 2 12.39 4.84
-2 19 2 8.79 2.89
2 19 -2 9.15 3.28
4 17 -1 141.57 5.8
-4 17 1 139.95 5.93
4 17 -1 137.17 5.68
-4 17 1 124.98 6.33
-7 -9 2 5.87 2.58
7 9 -2 5.99 2.18
-7 -9 2 6.56 2.38
-7 9 2 5.81 2.06
7 9 -2 6.28 2.59
-7 9 2 8.12 2.55
6 3 5 31.56 4.8
6 -3 5 27.37 6.91
-6 3 -5 28.51 2.05
-1 11 10 32.31 4.26
-1 -11 10 34.35 2.16
-1 -11 10 35.43 4.01
-1 11 10 41.2 3.28
-1 11 10 37.29 3.62
-1 0 12 0.14 0.65
-1 0 12 0.46 0.93
-1 0 12 -0.03 0.18
1 18 -5 155.72 8.31
-1 18 5 167.71 7.34
-1 18 5 162.6 8.14
-1 18 5 160.61 5.93
-1 -18 5 152.01 4.97
-1 18 5 150.94 4.56
3 15 5 125.23 6.26
-3 15 -5 116.23 4.57
3 15 5 125.83 6.46
2 16 -7 265.64 8.75
-2 16 7 274.11 9.78
-2 16 7 266.48 10.36
-2 16 7 275.31 11.7
-2 16 7 256.33 8.4
-2 -16 7 268.17 8.6
6 7 4 44.31 2.53
6 7 4 46.09 3.58
-6 7 -4 45.2 3.54
-3 -1 12 68.79 3.68
-3 -1 12 60.61 5.14
-3 1 12 60.37 6.43
-3 1 12 55.77 3.75
-1 -8 11 3.03 1
-1 8 11 2.66 1.18
-1 8 11 5.16 1.77
-1 -8 11 3.78 1.56
-1 8 11 5.26 2.16
5 2 7 3.52 2.3
5 -2 7 4.45 1.45
2 17 -6 212.06 7.35
-2 17 6 222.7 9.77
-2 17 6 221 6.93
-2 17 6 230.84 8.06
-2 -17 6 213.72 6.85
-1 1 12 2.59 0.89
-1 -1 12 11.92 3.69
-1 1 12 7.15 2.34
-1 1 12 4.24 1.89
-1 -1 12 6.99 1.95
0 -17 6 0.59 0.55
0 17 -6 0.32 0.6
0 17 6 -0.05 0.27
0 17 6 0.63 0.73
0 17 6 1.1 1.28
4 9 7 66.52 5.51
4 9 7 65.23 4.5
4 -9 7 63.24 6.38
3 12 7 10.06 3.76
3 12 7 14.06 4.65
-6 0 10 28.86 5.76
-6 0 10 28.04 3.85
-2 3 12 16.95 5.68
-2 3 12 12.49 1.64
-2 -3 12 11.32 2.52
-2 3 12 11.39 3.93
-2 -3 12 13.56 3.38
-6 1 10 113.74 5.14
-6 1 10 112.64 4.73
-6 -1 10 107.92 4.71
-6 -1 10 109.78 7.03
-7 -9 4 40.78 4.24
-7 9 4 37.78 3.26
7 9 -4 41.68 2.25
7 9 -4 36.19 2.15
-7 -9 4 41.15 2.23
-7 9 4 41.96 2.73
1 -4 11 4.75 1.5
1 -4 11 7.47 2.44
1 4 11 7.61 1.92
1 4 11 5.78 1.93
4 16 2 0.99 1.22
5 15 0 135.48 4.97
5 15 0 125.73 5.85
-5 15 0 131.88 5.14
-5 2 11 140.3 5.77
-5 -2 11 147.67 8.75
-5 -2 11 142.11 5.77
-5 2 11 136.43 5.76
4 13 5 17.28 3.1
4 13 5 14.02 3.74
-4 13 -5 15.39 3.54
-5 15 4 0.02 0.38
5 15 -4 0.02 0.45
-5 15 4 0.34 0.74
5 15 -4 0.8 0.38
-5 -15 4 0.8 0.88
2 6 10 19.28 6.41
2 -6 10 15.22 5.15
2 6 10 13.74 3.94
7 8 0 103.83 5.45
-7 -8 0 111.56 5.04
7 8 0 107 5.33
-7 8 0 112.23 5.49
3 18 1 36.75 4.49
-3 18 -1 37.79 7.28
3 18 1 42.2 3.55
-3 18 -1 38.03 2.3
-3 -2 12 39.31 5.04
-3 -2 12 24.83 1.86
-3 2 12 33.89 5.48
-3 2 12 26 6.65
0 7 11 10.61 4.07
0 -7 11 12.09 3.82
0 7 11 13.42 2.77
2 14 7 82.53 4.27
2 14 7 92.65 5.28
-1 2 12 129.4 4.34
-1 -2 12 137.66 5.05
-1 -2 12 135.36 5.6
-1 2 12 135.42 5.76
-1 2 12 144.97 6.1
-7 3 8 -0.53 1.02
-7 3 8 0.93 1.21
-7 -3 8 0.46 0.66
-7 -3 8 0.78 0.78
-7 -6 7 209.84 7.38
-7 6 7 197.96 7.04
7 6 -7 185.89 6.09
-7 -6 7 195.71 7.17
-7 6 7 203.29 7.49
7 6 -7 193.21 6.92
4 17 -3 31.3 3.24
-4 17 3 26.53 1.88
-4 -17 3 28.12 1.5
-4 17 3 27.45 2.96
2 19 1 28.1 5.21
-2 19 -1 25.45 2.22
-2 19 -1 27.63 2.7
2 19 1 29.78 5.38
-3 -8 11 0.27 0.21
-3 8 11 1.26 1.12
-3 -8 11 0.87 1.01
-3 8 11 1.52 1.11
-3 8 11 2.71 0.8
0 18 5 150.3 4.79
0 18 5 157.13 8.61
0 18 -5 144.67 8.01
0 18 5 152.47 5.46
0 18 5 161.57 8.21
0 -18 5 145.69 4.78
-6 13 2 1.18 1.29
-6 -13 2 0.4 0.73
6 13 -2 0.71 0.84
-6 -13 2 0.16 0.24
6 13 -2 0.85 1.97
3 17 3 25.47 7.53
3 17 3 25.45 4.98
-3 17 -3 20.01 2.28
1 -9 10 15.05 4.42
1 9 10 22.23 6.08
1 9 10 17.5 4.61
0 16 7 31.15 6.19
0 -16 7 30.23 3.01
0 16 7 31.64 4.49
-6 -2 10 24.12 4.01
-6 -2 10 18.48 5.94
-6 2 10 18.73 4.44
-6 2 10 22.66 6.34
-5 10 -5 22.51 4.1
5 10 5 19.51 3.74
5 10 5 20.45 3.69
6 13 -3 52.2 3.02
-6 -13 3 49.82 1.98
-6 13 3 52.3 4.13
6 13 -3 50.63 1.63
-6 -13 3 49.49 3.9
-6 13 3 45.94 3.98
5 -3 7 6.45 2.02
5 3 7 8.61 2.47
-1 15 8 255.68 9.24
-1 -15 8 267.38 8.78
-1 15 8 266.9 10.74
-1 15 8 219.29 13.46
-1 -15 8 231.31 7.42
4 17 0 273.6 10.03
4 17 0 298.29 9.8
-4 17 0 279.11 9.36
5 13 3 75.49 3.98
5 13 3 72.23 3.86
-5 13 -3 64.7 5.7
-6 -9 8 47.74 2.18
-6 9 8 51.09 3.73
-6 -9 8 50.28 4.13
-6 9 8 49.76 2.77
6 9 -8 43.91 2.53
-7 7 -1 -0.9 1.85
-7 -7 -1 0.92 0.76
7 7 1 0.71 1.28
-6 4 -5 48.08 4.44
6 4 5 40.57 2.54
6 -4 5 49.93 5.47
3 -10 8 17.56 4.95
3 10 8 19.96 4.43
3 10 8 15.83 4.53
-5 10 9 4.59 2.01
5 10 -9 2.24 0.75
-5 -10 9 6.13 2.1
-5 10 9 5.45 1.79
-5 -10 9 4.54 2.74
-7 9 1 8.63 2.75
7 9 -1 9.48 2.71
-7 -9 1 9.98 3.84
-7 -9 1 7.48 3.57
7 9 -1 9.36 3.79
7 5 2 178.76 8.43
-7 -5 -2 168.28 7.15
-7 5 -2 163.77 6.26
5 13 -7 73.47 3.11
-5 13 7 68.07 3.77
-5 13 7 66.2 2.8
-5 13 7 63.48 5.94
-5 -13 7 67.05 2.58
-5 -13 7 71.45 5.31
-5 3 11 12.24 3.58
-5 -3 11 12.81 3.56
-5 -3 11 15 5.14
-5 3 11 16.91 5.69
-5 14 -2 19.32 2.78
5 14 2 18.73 2.83
5 14 2 15.7 4.76
-2 15 8 2.83 1.58
-2 -15 8 3.56 1.39
2 15 -8 0.98 0.37
-2 15 8 3.11 1.87
-2 15 8 3.38 1.27
-2 15 8 4.45 1.99
4 6 8 70.5 5.43
4 -6 8 75.2 4.37
4 6 8 78.49 4.3
2 10 9 1.53 1.37
2 10 9 -0.08 0.59
2 -10 9 0.52 0.79
-5 14 6 21.16 1.26
-5 -14 6 20.14 1.71
5 14 -6 19.84 3.42
-5 14 6 21.77 2.71
-5 -14 6 25.49 3.62
-3 11 10 10.74 2.65
-3 -11 10 11.06 3.53
-3 11 10 13.93 1.96
-3 11 10 14.22 3.51
-3 3 12 39.51 7.37
-3 -3 12 39.13 3.57
-3 3 12 36.87 2.48
-3 -3 12 37.75 7.45
-2 -18 5 54.71 1.64
2 18 -5 57.13 5.47
-2 18 5 54.29 2.86
-2 18 5 57.02 3.14
-1 -3 12 5.1 1.78
-1 -3 12 3.33 1.47
-1 3 12 2.71 1.11
-1 3 12 5.98 1.9
-1 3 12 4.89 2.18
-3 13 9 69.07 6.12
-3 13 9 75.56 3.41
-3 13 9 72.58 7.76
-3 13 9 71.67 8.06
-3 -13 9 76.92 4.61
3 13 -9 66.38 3.71
-2 -4 12 -0.34 0.92
-2 4 12 0.88 1.28
-2 4 12 0 0.26
-2 4 12 0.59 0.68
0 20 0 6.12 2.19
0 20 0 5.87 0.94
-2 19 3 17.85 6.85
-2 -19 3 17.09 1.37
2 19 -3 16.28 5.07
-2 19 3 17.04 3.38
3 14 6 145.6 6.79
3 14 6 141.76 6.57
1 19 3 20.14 3.78
-1 19 -3 23.3 6.63
1 19 3 22.56 2.84
1 19 3 25.26 2.05
0 13 9 34.92 6.87
0 13 9 33.05 5.82
0 -13 9 27.98 5.87
0 -13 9 25.85 3.72
-6 7 9 150.7 5.96
-6 -7 9 154.15 6.2
-6 7 9 153.18 5.86
6 7 -9 152.11 5.01
-6 -7 9 142.23 5.88
-6 -13 1 89.98 3.48
6 13 -1 94.7 6.96
6 13 -1 102.95 3.96
-6 13 1 104.84 4.89
-6 -13 1 94.98 4.56
-6 3 10 18.1 5.89
-6 -3 10 19.01 6.12
-6 3 10 16.61 5.21
-6 -3 10 13.13 2.6
-4 12 9 157.97 6.66
-4 12 9 156.85 5.82
-4 -12 9 144.08 5.02
-4 12 9 147.08 7.5
4 12 -9 144.57 4.65
-4 -12 9 151.41 8.16
-7 -8 6 362.42 11.88
7 8 -6 347.23 10.69
7 8 -6 348.31 11.87
-7 8 6 362.46 12.07
-7 8 6 363.86 11.74
-7 -8 6 347.16 11.6
-7 -4 8 9.21 3.48
-7 4 8 7.37 2.41
-7 4 8 7.48 1.67
-7 -4 8 7.63 2.27
-6 11 -2 3.01 1.13
6 11 2 3.16 1.79
6 11 2 4.51 2.09
3 7 9 130.1 6.92
3 7 9 135.73 6.92
3 -7 9 138.39 6.66
-8 0 3 1.34 0.96
-8 0 3 0.48 0.93
1 -5 11 21.5 4.43
1 5 11 19.49 5.28
1 5 11 20.8 3.15
1 12 9 0.49 1.01
1 -12 9 0.38 0.47
-4 -7 11 23.68 5.56
-4 7 11 17.82 2.53
-4 7 11 17.54 5.13
-4 7 11 22.81 4.09
6 13 -4 0.3 0.68
-6 13 4 0.22 0.92
-6 13 4 0 1.25
-6 -13 4 0.56 0.7
6 13 -4 0.23 0.56
6 12 1 19.8 4.27
6 12 1 22.48 1.88
-6 12 -1 22.1 1.8
-4 10 10 2.43 1.38
-4 10 10 1.8 1.17
-4 -10 10 0.54 0.71
-4 10 10 3.06 0.74
0 20 1 7.48 2.78
0 20 1 4.55 1.13
0 20 -1 6.76 2.75
-5 8 -6 4.52 1.34
5 8 6 4.63 1.67
5 8 6 5.85 2.04
5 -8 6 3.06 1.48
-7 -9 5 125.95 9.73
7 9 -5 115.03 3.92
-7 -9 5 115.87 4.84
7 9 -5 117.87 5.36
-7 9 5 109.95 7.08
-7 9 5 114.11 4.39
-7 0 -3 76 3.8
7 0 3 81.96 4.11
-8 1 3 38.39 2.32
-8 -1 3 40.13 3.87
-8 1 3 45.81 6.12
-8 -1 3 37.35 4.45
3 18 -4 148.46 5.72
-3 18 4 125.59 6.54
-3 18 4 131.54 5.57
-3 -18 4 134.84 4.75
5 12 4 135.81 8.68
-5 12 -4 138.1 6.22
5 12 4 149.72 6.46
5 4 7 38.36 4.55
5 4 7 28.92 2.17
5 -4 7 35.48 3.79
1 -14 8 14.22 2.28
1 14 8 17.69 5.75
1 14 8 19.09 5.43
-2 9 11 3.16 1.11
-2 9 11 3.58 1.25
-2 -9 11 1.61 0.48
-2 -9 11 2.97 1.81
-2 9 11 2.34 1.15
7 -1 3 9.55 2.53
-7 -1 -3 6.72 2.64
-7 1 -3 10.04 3.57
7 1 3 7.64 2.38
-8 0 4 10.23 3.86
-8 0 4 7.6 3.09
-1 -19 4 24.16 1.13
1 19 -4 31 4.48
-1 19 4 28.29 3.24
-1 19 4 24.16 2.41
-5 12 8 155.68 6.68
-5 -12 8 142.87 6.9
-5 12 8 136 5.06
-5 -12 8 143.96 4.85
5 12 -8 157.6 5.26
-5 8 10 131.87 5.61
-5 -8 10 128.32 4.88
-5 -8 10 123.57 7.26
-5 8 10 135.28 5.3
-8 1 4 0.7 0.57
-8 1 4 0.26 0.95
-8 -1 4 0.75 1.2
-5 4 11 8.08 3.3
-5 -4 11 6.79 3.27
-5 4 11 8.38 2.73
-5 -4 11 5.73 2.06
-8 0 2 270.76 9.9
-8 0 2 276.84 10.7
-8 2 3 116.13 5.19
-8 -2 3 120.73 5.14
-8 2 3 100.97 4.39
-8 -2 3 101.4 5.53
-4 17 4 23.81 1.29
4 17 -4 28.15 4.93
-4 -17 4 26.91 2.33
-4 17 4 27.64 3.33
-4 17 4 26.11 6.56
-6 8 -4 0.71 0.55
6 8 4 0.6 1.03
6 8 4 0.52 1.14
-3 4 12 32.02 6.08
-3 -4 12 38.99 6.21
-3 -4 12 31.48 1.95
-3 4 12 32.31 1.59
-3 4 12 36.32 4.27
-6 5 -5 25.83 4.34
6 -5 5 26.77 2.14
6 5 5 22.98 2.71
0 11 10 12.1 4.28
0 11 10 12.37 3.49
0 -11 10 8.86 3.02
0 -11 10 13.7 3.52
2 7 10 24.85 4.22
2 -7 10 21.32 3.01
2 7 10 19.5 4.32
0 19 4 19.81 5.75
0 19 -4 17.94 3.61
0 19 4 18.48 2.03
0 19 4 20.11 3.3
-1 4 12 13.2 2.87
-1 -4 12 14.51 3.58
-1 4 12 18.82 4.25
-1 4 12 21.02 6.15
-1 -4 12 12.95 2.39
1 20 0 1.04 0.75
-1 20 0 1.13 0.56
-1 20 0 0.74 1.17
-8 1 2 24.1 4.77
-8 -1 2 21 5.33
-8 1 2 13.02 4.92
-8 -1 2 20.21 5.84
-7 2 -3 36.3 5.55
7 -2 3 28.04 2.45
-7 -2 -3 32.95 2.37
7 2 3 31.75 4.65
1 20 -1 2.29 1.63
-1 20 1 1.69 1
-1 20 1 3.49 1.19
5 15 1 21.15 6.99
5 15 1 26.55 2.24
-5 15 -1 28.63 1.72
-6 -12 6 25.08 1.22
-6 -12 6 14.46 4.47
-6 12 6 18.61 2.28
6 12 -6 12.3 2.9
-6 12 6 13.86 3.27
0 -15 8 34.56 1.68
0 -15 8 34.25 4.23
0 15 8 34.75 5.01
0 15 8 40.98 5.35
7 7 -7 14.2 1.46
-7 -7 7 15.68 4.07
-7 7 7 15.58 2.07
-7 -7 7 15.69 2.32
7 7 -7 13.79 4.05
-7 7 7 16.18 4.49
-7 -10 3 49.12 1.75
-7 10 3 49.47 2.24
-7 -10 3 54.2 2.53
7 10 -3 45 3.03
7 10 -3 48.06 1.93
-7 10 3 49.91 3.45
-8 2 4 135.2 6.86
-8 -2 4 139.88 6.17
-8 2 4 131.56 8.69
-8 -2 4 133.43 5.25
-6 -4 10 16.09 3.06
-6 -4 10 18.42 4.87
-6 4 10 21.79 5.34
-6 4 10 18.92 2.03
6 4 -10 13.98 1.88
5 15 -5 74.84 3.4
-5 15 5 76.88 3.69
-5 15 5 72.67 3.3
-5 -15 5 71.67 3.79
-6 -11 7 53.67 2.12
-6 -11 7 55.09 2.98
-6 11 7 57.3 2.11
-6 11 7 58.45 3.64
6 11 -7 53.06 1.98
-1 9 11 29.37 7.49
-1 9 11 33.28 5.29
-1 9 11 30.72 7.8
-1 -9 11 28.32 2.51
-1 -9 11 34.1 5.92
2 19 2 2.53 1.66
-2 19 -2 0.69 1.1
2 19 2 0.58 0.25
2 19 2 3 1.62
-2 19 -2 1.92 0.91
4 17 1 193.74 8.26
4 17 1 192.66 6.77
-4 17 -1 185.08 6.92
-6 10 -3 9.82 2.98
6 10 3 10.96 3.82
6 10 3 13.69 3.3
-4 12 -6 4.6 2.17
4 12 6 7.64 4.08
4 12 6 10.1 3.33
-2 -5 12 49.52 4.9
-2 -5 12 46.12 1.88
-2 5 12 55.35 6.17
-2 5 12 39.55 2.44
-2 5 12 45.99 4.06
-7 -6 -2 69.46 3.47
-7 6 -2 65.81 3.82
7 6 2 70.69 6.93
-3 16 7 3.54 1.14
3 16 -7 4.85 2.5
-3 16 7 4.67 2.82
-3 16 7 5.13 1.69
-3 -16 7 4.7 1.81
-4 -15 7 94.33 6.08
4 15 -7 94.83 3.88
-4 15 7 90.02 3.95
-4 15 7 84.03 8.07
-4 15 7 91.42 4.57
0 8 11 17.16 6.27
0 8 11 16.57 4.65
0 -8 11 15.2 2.81
7 10 -2 2.65 2.15
-7 -10 2 2.1 0.82
-7 10 2 3.45 1.58
-7 10 2 2.25 1.43
-7 -10 2 2.33 1.32
7 10 -2 2.28 1.15
-3 18 -2 59.23 2.77
3 18 2 58.78 3.95
3 18 2 62.21 3.38
-8 2 2 226.02 8.84
8 2 -2 226.48 9.21
-8 2 2 217.03 8.82
-8 -2 2 195.56 7.39
-8 -2 2 225.88 9.05
2 17 5 4.67 2.4
2 17 5 4.97 1.51
-4 0 12 126.96 4.62
-4 0 12 138.95 5.63
-7 9 0 0.35 0.83
-7 -9 0 0.63 0.61
7 9 0 0.29 0.85
7 9 0 2.11 1.39
-7 -5 8 9.61 2.75
-7 5 8 11.69 2.65
-7 -5 8 9.51 3.15
-7 5 8 11.65 2.67
4 10 7 2.69 1.23
4 10 7 1.14 0.96
4 -10 7 1.57 1.63
-8 3 3 86.79 3.97
-8 3 3 80.24 4.75
-8 -3 3 88.72 5.94
8 3 -3 84.6 6.14
-8 -3 3 91.3 4.41
0 0 12 99.84 3.6
0 0 12 103.18 5.24
-2 12 10 9.65 1.93
-2 12 10 12.43 3.67
-2 -12 10 8.56 2.73
-2 12 10 10.95 2.61
-4 -1 12 17.77 5.28
-4 1 12 14.94 3.4
-4 -1 12 14.75 1.98
-4 1 12 15.97 4.75
6 13 0 13.25 5.87
6 13 0 12.19 3.92
-6 13 0 10.97 4.59
0 20 2 54.74 4.2
0 20 2 53.66 1.88
0 20 -2 49.72 3.67
-8 0 5 -0.14 1.01
-8 0 5 0.32 0.96
3 17 -6 210.37 7.48
-3 17 6 190.52 8.04
-3 -17 6 188.98 6.39
-3 17 6 205.29 7.75
-3 17 6 192.79 6.15
4 7 8 1.33 1.41
4 -7 8 0.9 0.88
4 7 8 1 0.84
-1 20 -1 62.55 4.17
1 20 1 74.02 5.29
-1 20 -1 64.59 2.63
7 3 3 36.74 3.6
-7 3 -3 37.8 4.31
-7 -3 -3 37.49 7.5
7 -3 3 39.81 2.43
7 10 -4 0.98 0.68
7 10 -4 1.23 0.72
-7 10 4 1.94 1.38
-7 10 4 1.04 0.82
-7 -10 4 -0.23 0.8
-7 -10 4 0.5 0.45
1 17 6 9.21 2.61
1 17 6 10 3.61
1 -17 6 7.73 1.59
0 -1 12 9.38 2.12
0 1 12 8.68 2.04
0 -1 12 13.43 4.18
0 1 12 15.63 5.36
-4 -16 6 0.16 0.67
-4 16 6 0.49 0.88
-4 16 6 -0.02 1.39
-4 16 6 0.38 0.39
4 16 -6 -0.05 0.68
5 -5 7 17.63 2.54
5 5 7 20.38 3.52
5 5 7 18.11 5.83
-3 -9 11 1.53 0.93
-3 9 11 2.1 0.93
-3 9 11 1.17 0.98
-3 9 11 0.37 0.84
7 8 1 12.48 3.42
-7 8 -1 12.92 3.73
-7 -8 -1 14.51 2.17
7 8 1 14.23 5.72
-8 -1 5 71.57 4.07
-8 -1 5 71.67 3.54
-8 1 5 69.89 4.27
-8 1 5 72.96 6.41
2 16 6 186.81 7.87
2 16 6 190.3 9.06
-8 -3 4 47.9 3.47
8 3 -4 52.59 2.51
-8 -3 4 56.03 6.07
-8 3 4 46.85 3
-8 3 4 48.08 6.24
5 16 -2 57.65 3.16
-5 16 2 55.02 2.97
-5 -16 2 53.33 2.13
5 16 -2 57.48 3.53
1 6 11 0.32 0.41
1 6 11 1.02 1.2
1 -6 11 0.64 0.56
1 18 5 0.1 0.53
1 18 5 0.85 0.85
1 -18 5 0.37 0.26
-1 18 -5 0.34 0.4
-2 14 9 55.66 5.31
-2 14 9 54.81 5.66
-2 -14 9 54.05 3.44
-2 14 9 48.04 2.46
-1 -12 10 70.69 7.35
-1 12 10 63.02 7.21
-1 -12 10 62.86 2.58
-1 12 10 72.72 5.03
-1 12 10 67.74 4.2
-1 20 2 0.25 0.42
-1 20 2 0.72 1.03
1 20 -2 1.04 0.53
-1 -14 9 63.47 3.23
-1 -14 9 70.04 4.64
-1 14 9 66.11 6.06
-1 14 9 71.57 9.8
-1 14 9 70.69 3.25
3 0 10 1.86 0.97
3 0 10 0.58 0.75
-3 15 8 136.34 9.85
-3 15 8 144.11 5.49
-3 -15 8 138.43 6.6
-3 15 8 148.47 6.55
-3 -15 8 130.47 4.28
3 15 -8 138.18 5.68
-4 14 8 16.76 3.85
-4 14 8 17.5 5.64
-4 14 8 16.12 4.77
4 14 -8 13.24 2.1
-4 -14 8 13.12 1.94
-4 -14 8 13.61 3.68
-4 2 12 0.35 0.51
-4 -2 12 0.57 0.69
-4 2 12 -0.07 1.03
-4 -2 12 0.29 0.27
-5 5 11 11.73 3.74
-5 -5 11 11.67 2.7
-5 5 11 13.37 4.34
-5 -5 11 10.45 4.26
4 15 4 258.92 9.13
4 15 4 247.38 7.96
-4 15 -4 251.07 8.16
2 18 4 6.1 2.84
2 18 4 2.97 1.48
2 -18 4 3.79 1.11
-2 18 -4 4.57 1.97
-6 -13 5 15.32 1.11
-6 -13 5 14.01 3.1
6 13 -5 15.49 2.94
-6 13 5 14.17 1.92
-6 13 5 14.35 4.84
2 13 8 149.09 7.19
2 -13 8 155.09 5.82
2 13 8 166.8 7.31
1 10 10 9.52 3.18
1 10 10 8.12 2.43
1 -10 10 6.76 2.03
-8 -3 2 4.83 2
-8 3 2 6.5 3.45
-8 3 2 8.38 2.25
-8 -3 2 8.21 2.55
8 3 -2 9.18 2.9
3 1 10 6.93 1.77
3 -1 10 6.66 2.78
3 1 10 4.68 2.65
0 -2 12 9.61 3.07
0 2 12 8.98 2.17
0 -2 12 8.45 1.65
0 2 12 12.43 4.34
-3 -5 12 77.99 4.46
-3 5 12 73.12 5.4
-3 5 12 71.4 4.09
-3 -5 12 73.22 4.81
-3 5 12 70.36 2.94
-6 8 9 101.92 4.35
-6 -8 9 95.19 4.13
6 8 -9 90.75 3.63
-6 8 9 91.67 5.33
-6 -8 9 96.33 3.73
-8 0 1 0.01 1.44
-8 0 1 0.65 1.07
-2 -19 4 97.81 3.24
2 19 -4 109.09 4.65
-2 19 4 98.61 5.46
-2 19 4 102.03 3.73
-8 -2 5 318.33 10.1
-8 2 5 315.38 9.67
-8 -2 5 323.12 6.2
-8 2 5 316.99 11.53
-1 5 12 2.68 1.57
-1 -5 12 4 1.51
-1 5 12 2.21 0.74
-1 -5 12 3.82 0.82
-1 5 12 4.01 2.27
5 16 -1 16.1 2.72
-5 -16 1 17.08 3.01
5 16 -1 16.79 4.33
-5 16 1 18.35 2.67
-5 -16 3 44.9 2.22
-5 16 3 39.68 2.14
5 16 -3 41.08 4.2
5 16 -3 40.95 2.41
-6 -10 8 0.18 1.06
6 10 -8 1.29 0.64
-6 10 8 0.52 0.7
-6 10 8 0.94 1.08
-6 -10 8 0.33 0.37
8 1 -1 28.01 5.3
-8 -1 1 25.1 2.55
-8 1 1 28.71 2.1
-8 -1 1 23.16 7.02
-8 1 1 26.92 4.37
4 16 3 194.48 7.75
4 16 3 213.88 7.97
-4 16 -3 190.66 7.03
-7 10 1 2.29 2.22
7 10 -1 2.09 0.8
-7 -10 1 0.14 1.21
-7 -10 1 2.1 1.07
7 10 -1 2.1 0.86
3 -8 9 2.64 1.03
3 8 9 3.57 1.58
3 8 9 1.25 1.29
3 13 7 114.47 5.76
3 13 7 119.19 5.03
-6 -5 10 12.08 3.58
-6 -5 10 8.8 3.53
-6 5 10 10.75 3.56
6 5 -10 6.35 0.86
-6 5 10 9.62 4.07
-5 11 -5 7.91 2.87
5 11 5 7.07 3.15
5 11 5 5.87 2.53
6 6 5 51.1 2.91
-6 6 -5 54.06 2.7
6 6 5 55.78 3.09
6 -6 5 50.44 7.8
-4 -8 11 22.01 5.9
-4 8 11 19.19 3.55
-4 8 11 21.56 5.37
-4 8 11 20.24 2.8
-4 8 11 19.69 5.82
3 19 -1 50.96 2.82
3 19 -1 50.38 5.09
-3 19 1 45.44 7.4
-3 19 1 47.29 2.34
3 2 10 77.45 4.09
3 -2 10 72.48 4.29
3 2 10 72.67 3.27
-8 -4 3 2 1.84
-8 4 3 0.63 1.02
-8 4 3 0.35 0.79
-8 -4 3 1.33 0.79
8 4 -3 2.15 1.21
-7 0 9 0.62 0.87
-7 0 9 0.91 0.76
1 16 7 3.27 1.16
1 16 7 0.53 0.7
-7 9 6 0.92 1.18
-7 -9 6 1.89 1.48
-7 -9 6 1.1 0.72
-7 9 6 2.19 0.68
7 9 -6 1.38 0.69
7 9 -6 2.98 1.17
3 11 8 2.86 1.75
3 11 8 1.88 1.51
3 -11 8 3.81 1.76
5 11 -9 110.64 3.65
-5 -11 9 116.27 5.81
-5 -11 9 103.52 3.91
-5 11 9 112.75 4.2
-5 11 9 121.17 4.91
7 4 3 5.8 2.34
-7 4 -3 7.81 2.11
-7 -4 -3 6.22 1.77
7 -4 3 5.7 1.74
-4 3 12 109.26 4.14
-4 3 12 128.27 5.49
-4 -3 12 124.49 4.88
-3 -19 2 11.6 1.11
-3 19 2 13.88 3.79
-3 19 2 15.04 3.98
3 19 -2 12.2 4.8
8 2 -1 45.5 2.76
-8 -2 1 41.35 3.14
-8 -2 1 50.56 2.92
-8 2 1 50.54 4.32
-8 2 1 49.67 5.93
-7 1 9 1.5 1.23
-7 1 9 0.78 0.73
-7 -1 9 5.23 2.38
-7 -1 9 3.76 1.43
-2 6 12 59.16 4.98
-2 6 12 56.05 3.57
-2 -6 12 59.26 3.33
-2 -6 12 54.64 3.09
-2 6 12 57.93 3.83
-1 17 7 58.29 6.56
-1 17 7 53.24 2.2
1 17 -7 57.64 4.78
-1 17 7 72.38 6.07
-1 -17 7 53.46 2.7
-1 17 7 57.16 2.84
5 9 6 14.05 4.32
5 9 6 15.91 5.77
-5 9 -6 11.56 3.62
2 -11 9 61.83 4.29
2 11 9 73.28 4.17
2 11 9 64.15 7.52
-1 18 6 100.91 4.7
-1 18 6 92.2 2.97
-1 18 6 94.54 9.05
-1 -18 6 102.02 3.35
-1 18 6 103.16 8.82
1 18 -6 91.49 4.65
-8 4 4 0.36 0.83
-8 -4 4 0.91 0.95
-8 4 4 0.24 1.01
8 4 -4 0.3 0.56
-8 -4 4 1.07 1.41
0 3 12 -0.08 0.31
0 3 12 0.26 0.77
0 -3 12 0.34 0.39
0 -3 12 0.42 0.82
4 14 5 31.45 7.45
4 14 5 30.67 5.21
-4 14 -5 29.91 4.49
4 0 9 0.14 1.15
-8 -3 5 3.24 2.1
-8 -3 5 3.19 1.96
-8 3 5 1.68 1.5
-8 3 5 0.65 1.05
4 1 9 19.42 6.11
4 -1 9 20.49 5.81
3 19 0 17.57 2.99
3 19 0 20.6 5.17
-3 19 0 15.84 1.56
-3 19 0 6.82 2.12
-5 9 10 117.32 4.82
-5 -9 10 95.3 3.6
-5 -9 10 111.9 7.65
-5 9 10 108.28 4.6
2 -8 10 -0.06 0.67
2 8 10 1.13 0.93
2 8 10 0.28 0.8
-7 -6 8 15.06 3.81
-7 6 8 15.42 3.63
7 6 -8 13.93 3.14
-7 -6 8 14.77 4.2
-7 6 8 12.73 3.62
7 6 -8 12.07 1.27
-7 -7 -2 100.87 4.46
7 7 2 99.36 6.69
7 7 2 91.52 5
-7 7 -2 101.28 4.98
3 16 5 77.55 5.87
-3 16 -5 72.79 3.75
3 16 5 87.05 5.04
-8 4 2 177.4 9.45
-8 4 2 171.99 7.57
-8 -4 2 188.95 6.38
8 4 -2 174.4 6.57
-8 -4 2 180.65 6.31
-7 -10 5 84.79 3.97
7 10 -5 83.95 4.41
-7 10 5 88.37 5.66
7 10 -5 82.49 2.65
-7 -10 5 85.98 3.53
-7 10 5 85.51 3.54
-3 -18 5 0.47 0.32
-3 18 5 -0.03 0.62
3 18 -5 0.82 0.76
-3 18 5 1.32 1.28
2 0 11 0.24 0.35
2 0 11 3.63 1.55
-3 12 10 143.46 7.16
-3 12 10 133.14 9.06
-3 -12 10 139.95 5.15
-3 12 10 133.44 6.19
3 17 4 29.54 5.17
-3 17 -4 24.29 3.86
3 17 4 27.42 6.96
1 19 4 24.34 7.7
-1 19 -4 17.49 6.38
1 19 4 20.6 1.74
1 19 4 21.9 4.71
-7 2 9 23.72 3.64
-7 -2 9 17.76 4.27
-7 2 9 24.09 3.18
-7 -2 9 22.46 4.56
-6 -14 2 0.95 0.44
6 14 -2 2.79 2
-6 -14 2 1.3 0.79
-6 14 2 0.41 0.92
6 14 -2 0.88 0.87
-2 -10 11 2.88 0.88
-2 -10 11 1.33 0.54
-2 10 11 2.32 1
-2 10 11 4.15 1.93
-2 10 11 1.95 1.9
-1 20 -2 1.81 0.69
-1 20 -2 1.15 1.61
1 20 2 1.18 0.98
1 20 2 2.2 1.59
-7 -8 7 -0.13 0.9
-7 -8 7 1.01 0.99
-7 8 7 0.76 0.79
7 8 -7 1.91 0.85
7 8 -7 0.54 0.38
-7 8 7 1 1.24
-4 17 5 31.53 1.38
4 17 -5 36.93 3.8
-4 -17 5 32.51 3.46
-4 17 5 31.02 3.06
-4 17 5 33.4 2.21
3 -3 10 27.68 6.11
3 3 10 29.45 2.67
3 3 10 25.48 5.35
2 -1 11 127.29 4.56
2 -1 11 135.67 7.17
2 1 11 131.73 7.31
2 1 11 124.91 5.45
-6 14 3 17.93 2.64
6 14 -3 17.96 1.99
-6 -14 3 18.52 1.06
6 14 -3 19.28 5.18
-6 -14 3 19.74 4.44
-6 14 3 21.06 1.99
-6 9 -4 21.68 3.59
6 9 4 19.09 2.97
6 9 4 20.36 4.45
5 6 7 11.89 3
5 -6 7 14.82 3.69
5 6 7 5.63 4.35
2 15 7 6.72 2.01
2 15 7 5.28 2
-4 11 10 0.27 0.64
-4 11 10 0.58 0.74
-4 -11 10 0.46 0.49
-4 -11 10 1.39 0.88
-4 11 10 0.8 0.98
-5 14 -3 132.06 5.59
5 14 3 127.24 5.62
5 14 3 130.11 6.22
-2 17 7 1.95 0.96
-2 17 7 2.92 1.06
-2 17 7 2.62 1.62
-2 -17 7 3.41 1.05
2 17 -7 0.75 0.81
-2 17 7 1 0.79
5 16 0 21.39 5.29
-5 16 0 21.17 2.04
5 16 0 18.86 1.66
4 -2 9 26.18 7.56
4 2 9 26.43 3.63
4 2 9 26.57 4.17
8 3 -1 1.32 0.71
-8 -3 1 0.62 0.9
-8 -3 1 0.71 1.1
-8 3 1 0.81 0.82
-8 3 1 1.83 1.45
-5 16 4 0.82 0.59
-5 16 4 0.65 0.65
5 16 -4 0.08 0.3
-5 -16 4 0.64 0.56
5 16 -4 0.88 0.95
-6 12 -2 45 4.74
6 12 2 44 2.3
6 12 2 36.84 2.33
-8 0 6 6.81 2.17
-8 0 6 7.52 3.31
-5 -14 7 82.31 3.06
-5 14 7 91.83 10.14
-5 14 7 90.26 8.06
-5 14 7 96.79 3.55
5 14 -7 100.34 3.8
-5 -14 7 92.18 4.75
4 18 -2 21.84 5.51
-4 18 2 21.85 2.61
-4 -18 2 18.34 1.51
-4 18 2 21.27 2.8
4 18 -2 20.24 4.05
2 20 -1 5.81 3.4
-2 20 1 3.97 2.4
-2 20 1 5.44 1.63
-5 6 11 73.8 3.74
-5 -6 11 62.1 2.95
-5 6 11 63.67 3.59
-5 -6 11 70.11 5.3
-4 18 1 134.22 6.32
-4 18 1 140.18 5.22
4 18 -1 137.07 4.73
4 18 -1 143.65 6.18
1 20 -3 0.38 1.23
-1 20 3 0.35 0.6
-1 20 3 -0.04 1.06
0 20 3 10.86 4.59
0 20 -3 7.62 3.41
0 20 3 7.88 1.67
-8 1 6 72.03 8.12
-8 -1 6 73.25 3.79
-8 -1 6 79.4 7.27
-8 1 6 68.18 5
1 -7 11 12.37 3.3
1 7 11 9.69 3.24
1 7 11 15.24 3.88
2 -2 11 3.07 0.95
2 2 11 1.75 1.35
2 2 11 6.11 1.74
2 -2 11 2.79 1.32
-4 17 -2 58.07 2.22
4 17 2 62.88 4.82
4 17 2 63.92 2.97
-4 4 12 9.88 3.99
-4 -4 12 7.42 2.81
-4 4 12 6.27 3.21
-3 6 12 0.91 0.83
-3 -6 12 0.16 0.42
-3 6 12 0.14 0.15
-3 6 12 1.24 1.13
-3 -6 12 0.68 1.08
0 -9 11 60.18 3.87
0 9 11 64.46 5.64
0 9 11 62.54 3.34
0 -9 11 62.04 2.59
6 0 6 11.6 3.18
-4 -13 9 45.43 4.43
-4 13 9 50.39 2.54
-4 13 9 56.9 3.02
-4 13 9 48.36 3.44
-4 -13 9 45.12 2.54
4 13 -9 39.33 2.01
-2 18 6 4.56 1.27
-2 -18 6 4.93 1.68
-2 18 6 7.23 2.7
2 18 -6 3.36 2.24
-2 18 6 6.39 2.4
-1 6 12 37.96 5.38
-1 -6 12 34.11 2.57
-1 6 12 29.27 2.41
-1 -6 12 30.48 6.02
-1 6 12 35.33 5.16
3 14 -9 47.34 3.04
-3 -14 9 48.8 5.27
-3 14 9 51.78 6.08
-3 14 9 44.74 3.85
-3 14 9 54.35 3.48
-3 14 9 49.6 3.9
0 18 6 18.99 4.91
0 18 6 19.76 1.55
0 18 6 17.77 6.18
0 -18 6 16.35 2.27
0 18 -6 12.47 3.76
0 18 6 13.37 2.03
4 8 8 2.61 1.29
4 8 8 2.99 1.2
4 -8 8 2.22 1.08
3 19 -3 0.26 0.72
-3 19 3 0.64 0.83
-3 -19 3 0.06 0.16
-3 19 3 0.34 0.51
-2 20 0 12.35 4.8
-2 20 0 7.87 1.82
2 20 0 11.04 3.93
-8 -5 3 182.57 6.3
-8 -5 3 175.38 6.18
-8 5 3 181.89 6.68
8 5 -3 173.79 7.19
-8 5 3 170.33 6.35
0 4 12 3.79 1.54
0 -4 12 3.14 1.06
0 4 12 3 1.13
-2 19 -3 4.2 2.95
2 19 3 4.18 2.04
-2 19 -3 2.63 1.03
2 19 3 3.28 2.3
2 19 3 1.91 1.15
0 -14 9 98.48 5.46
0 14 9 105.01 7.17
0 14 9 100.84 4.48
0 -14 9 88.91 3.26
5 15 2 43.02 2.02
5 15 2 43.94 4.11
-5 15 -2 42.55 2.49
-1 -10 11 14.88 4.99
-1 -10 11 12.54 1.49
-1 10 11 14.48 4.77
-1 10 11 14.33 3.74
-1 10 11 13.31 4.15
1 -13 9 39.59 4.97
1 13 9 45.57 4.74
1 13 9 47.96 3.17
-1 16 8 16.57 4.73
-1 16 8 13.93 2.33
-1 16 8 16 3.78
-1 -16 8 13.21 4.12
-1 -16 8 12.05 2.15
-7 3 9 6.06 1.89
-7 -3 9 5.95 2.07
-7 3 9 5.45 2.48
-7 -3 9 6.21 2.26
6 1 6 118.85 5.11
6 -1 6 110.47 9.77
6 14 -1 14.89 6.29
-6 14 1 12.38 3.92
6 14 -1 11.77 3.79
-6 -14 1 14.35 2.86
-8 -4 5 48.46 4.74
-8 4 5 43.69 3.88
8 4 -5 46.84 3
-8 -4 5 49.75 2.95
-8 4 5 44.95 2.6
-6 13 -1 0.29 1.13
6 13 1 0.48 0.84
6 13 1 0.23 0.49
-1 -19 5 0.41 0.43
1 19 -5 0.2 0.95
-1 19 5 0.22 0.62
-1 19 5 0.86 0.8
-7 -5 -3 2.45 1.69
7 5 3 0.79 1.05
-7 5 -3 1.48 0.83
-6 -6 10 28.77 5.25
-6 6 10 29.31 5.52
-6 -6 10 28.76 4.54
-6 6 10 28.75 5.35
-5 -15 6 4.81 1.2
-5 15 6 5.67 2.56
5 15 -6 3.77 1.96
-5 15 6 5.05 2.62
-5 15 6 2.63 1.92
5 13 4 79.49 4.06
-5 13 -4 71.54 5.09
5 13 4 70.55 3.76
-8 2 6 2.02 1.47
-8 -2 6 2.13 1.34
-8 -2 6 1.96 1.94
-8 2 6 0.83 0.83
0 17 7 10.2 4.68
0 17 7 10.12 3.97
0 -17 7 5.36 1.87
0 17 7 10.39 1.41
-7 -11 3 2.56 1.68
7 11 -3 3.14 1.08
-7 -11 3 1.19 1.62
-7 11 3 1.42 1.04
-7 11 3 3.33 1.4
7 11 -3 2.2 1.28
-8 5 4 1.58 1.21
-8 -5 4 2.32 1.48
-8 -5 4 0.75 0.95
8 5 -4 2.02 0.57
-8 5 4 2.71 1.71
3 15 6 2.97 1.67
3 15 6 2.49 1.31
2 20 -2 37.81 4.7
-2 20 2 40.91 1.61
-2 20 2 40.83 4.03
4 3 9 3.49 1.71
4 3 9 3.87 1.51
4 -3 9 3.22 1.81
7 9 1 42.75 3.18
7 9 1 48.5 2.77
-7 -9 -1 43.83 2.6
-7 9 -1 48.15 4.3
2 16 -8 53.53 2.97
-2 16 8 54.04 2.83
-2 16 8 52.2 4.65
-2 -16 8 50.72 2.81
-2 16 8 45.45 7.98
-2 16 8 51.71 2.9
-5 13 8 0.44 0.66
5 13 -8 0.13 0.4
-5 -13 8 0.49 0.82
-5 13 8 0.35 0.89
-5 13 8 0.98 1.44
-5 -13 8 0.19 0.31
0 -12 10 0.88 0.37
0 -12 10 0.69 0.95
0 12 10 0.77 0.4
0 12 10 0.47 0.88
6 14 -4 64.43 2.19
-6 -14 4 70.5 5.54
-6 14 4 71.83 3.52
6 14 -4 68.59 3.26
-6 -14 4 63.67 2.81
-6 14 4 69.48 2.81
-6 11 -3 54.1 2.83
6 11 3 44.9 4.27
6 11 3 49.17 3.15
-7 -10 0 71.09 3.42
7 10 0 75.67 3.79
-7 10 0 79.14 5.18
7 10 0 78.34 3.58
3 4 10 14.68 3.87
3 4 10 15.08 4.26
3 -4 10 14.57 4.34
-4 18 3 38.58 2.46
-4 -18 3 36.58 2.23
-4 18 3 35.83 3.66
4 18 -3 40.2 2.39
-7 11 2 4.2 2.89
-7 -11 2 5.27 2.05
7 11 -2 4.97 2.78
-7 -11 2 8 3.16
7 11 -2 6.09 2.28
-7 11 2 7.52 3.2
-6 2 -6 27.1 5.91
6 2 6 30.85 3.5
6 -2 6 31.96 3.24
6 7 5 0.68 1.67
6 -7 5 0.53 1.43
6 7 5 0.5 1.09
-6 7 -5 -0.29 1.8
-3 18 -3 63.2 3.07
3 18 3 70.91 4.68
3 18 3 66.08 3.84
-8 0 0 137.06 5.15
8 0 0 146.65 9.41
-8 -5 2 64.27 7.19
-8 5 2 60.72 3.49
-8 -5 2 60.71 3.06
8 5 -2 59.46 4.87
-8 5 2 60.88 4.57
6 12 -7 3.96 1.73
-6 -12 7 4.53 1.83
-6 12 7 4.8 1.42
-6 12 7 6.37 1.95
-6 -12 7 3.97 1.48
2 3 11 0.4 0.54
2 3 11 1.02 1.35
2 -3 11 0.29 1.04
3 19 1 22.85 6.78
-3 19 -1 19.22 2.47
3 19 1 22.01 3.82
-3 19 -1 21.74 4.59
-3 10 11 129.89 5.43
-3 10 11 133.92 6.12
-3 -10 11 139.01 8.82
-3 10 11 130.53 5
8 4 -1 28.32 2.27
-8 4 1 31.99 5.76
-8 -4 1 28.35 5.77
-8 4 1 27.25 3.63
-8 -4 1 25.78 5.96
-4 18 0 2.09 0.86
4 18 0 2.72 1.02
4 18 0 1.91 1.99
-8 -1 0 147.33 5.57
8 1 0 153.44 6.29
8 -1 0 149.93 6.06
-8 1 0 135.97 5.2
4 11 7 20.92 6.99
4 -11 7 14.41 5.92
4 11 7 14.38 5.73
-6 -9 9 16.61 4.03
-6 9 9 12.65 3.64
-6 9 9 16.32 2.22
-6 -9 9 14.26 3.25
6 9 -9 11.63 1.63
0 19 5 139.35 4.7
0 19 5 141.41 7.48
0 -19 5 128.76 3.81
0 19 5 142.19 6.92
0 19 -5 132.49 6.05
1 -15 8 42.87 3.6
1 15 8 49.92 3.62
1 15 8 47.08 3.1
-6 -13 6 39.14 4.44
-6 13 6 41.08 1.87
-6 13 6 35.06 4.09
6 13 -6 34.56 2.58
-6 -13 6 35.05 1.56
-2 7 12 0.47 0.66
-2 -7 12 1.03 0.36
-2 7 12 -0.07 0.91
-2 -7 12 0.51 1
-7 11 4 43.82 3.01
-7 -11 4 40.52 2.13
7 11 -4 37.92 1.39
7 11 -4 41.11 1.98
-7 11 4 43.42 2.55
-7 -11 4 43.53 5.43
-4 13 -6 188.38 8.78
4 13 6 200.81 8.74
4 13 6 194.74 9.06
-8 3 6 21.22 3.69
-8 3 6 19.93 3.88
-8 -3 6 19.46 2.61
-8 -3 6 20.02 5.1
3 -9 9 1.14 0.91
3 9 9 2.22 1.4
3 9 9 1.08 1.14
2 20 1 0.51 0.68
2 20 1 0.38 0.72
-2 20 -1 0.69 0.43
-7 -4 9 2.72 1.22
-7 4 9 0.44 0.56
-7 4 9 1.72 2.25
-7 -4 9 2.57 1.17
-4 9 11 97.01 5.11
-4 9 11 102.26 7.83
-4 9 11 102.44 4.96
-4 -9 11 107.08 8.76
8 2 0 54.32 5.16
-8 -2 0 62.18 3.53
-8 2 0 67.26 4.13
-7 -7 8 41.12 4.67
7 7 -8 37.77 1.59
-7 7 8 42.77 3.63
-7 7 8 43.53 6.36
-7 -7 8 45.11 5.67
-4 5 12 98.55 5.42
-4 -5 12 99.78 4.37
-4 5 12 87.72 9.78
-6 3 -6 202.64 8.18
6 -3 6 212.53 9.14
6 3 6 205.09 9.33
1 11 10 43.08 4.7
1 11 10 50.64 6.4
1 -11 10 41.11 3.19
0 5 12 2.86 1.11
0 -5 12 2.24 1.21
0 5 12 4.51 1.98
-2 13 10 130.02 5.96
-2 -13 10 146.65 5.28
-2 13 10 139.62 6.51
-2 13 10 153.79 7.25
5 7 7 180.41 8.01
5 7 7 181.53 7.37
5 -7 7 184.87 7.66
4 4 9 10.47 4.58
4 4 9 8.39 2.85
4 -4 9 11.17 4.12
-8 -5 5 20.99 4.4
-8 -5 5 27.13 2.64
-8 5 5 25.41 3.48
8 5 -5 24.59 2.35
-8 5 5 20.27 4.18
-2 19 5 16.26 3.4
-2 19 5 17.93 5.44
2 19 -5 10.39 4.03
-2 -19 5 14.56 1.82
7 8 2 74.39 4.58
7 8 2 74.67 7.28
-7 -8 -2 70.64 4.68
-7 8 -2 64.39 3.45
-6 -11 8 177.88 5.98
-6 11 8 187.87 6.99
-6 11 8 183.1 7.53
-6 -11 8 192.84 6.37
6 11 -8 182.8 5.4
-7 10 6 3.72 1.47
-7 -10 6 2.08 1.45
-7 10 6 3.34 2.54
7 10 -6 2.41 1.1
-7 -10 6 3.38 1.38
-7 11 1 41.45 2.42
7 11 -1 38.06 1.97
-7 -11 1 34.6 4.56
-7 -11 1 37.2 1.56
7 11 -1 41.61 2.58
8 6 -3 5.64 2.03
-8 -6 3 6.48 2.46
-8 -6 3 4.5 2.11
-8 6 3 5.4 2.14
-8 6 3 5.88 2.32
2 -4 11 17.3 3.16
2 4 11 15.73 3.6
2 4 11 19.49 6.51
-6 14 0 92.79 4.22
6 14 0 91.34 3.7
6 14 0 99.52 4.34
-5 -7 11 9.9 3.99
-5 -7 11 14.25 4.91
-5 7 11 10.1 5.16
-5 7 11 13.63 2.7
5 16 1 6.23 3.02
5 16 1 7.14 2.82
-5 16 -1 5.47 2.49
-6 0 11 -0.75 1.06
-6 0 11 0.57 0.97
-1 13 10 23.62 3.92
-1 -13 10 19.39 2.75
-1 13 10 29.44 2.75
-1 13 10 21.21 3.12
-1 -13 10 20.64 4.05
2 9 10 2.78 1.73
2 -9 10 1.44 1.29
2 9 10 3.87 1.87
0 -16 8 108.47 3.8
0 16 8 156.44 8.39
0 16 8 161.81 10.43
7 0 4 0.39 1.01
-7 0 -4 0.94 1.08
5 10 6 12.88 3.79
-5 10 -6 9.25 3.15
5 10 6 10.54 4.8
-7 6 -3 3.49 1.37
-7 -6 -3 3.49 1.27
7 6 3 3.35 1.47
3 5 10 30.22 5.99
3 -5 10 35.92 2.78
3 5 10 30.79 5.5
2 20 -3 3.08 1.55
-2 20 3 5.69 2.85
-2 20 3 3.65 1.59
-5 16 5 14.46 2.27
5 16 -5 16.87 2.79
-5 -16 5 16.35 3.36
-5 16 5 18.16 2.06
1 20 3 -0.17 0.92
-1 20 -3 0.2 1.13
1 20 3 0.69 0.88
1 20 3 0.07 0.24
-3 -7 12 0.34 0.93
-3 -7 12 0.29 0.19
-3 7 12 0.89 0.78
-3 7 12 0.31 0.81
-3 7 12 0.79 0.88
-6 1 11 54.42 4.71
-6 -1 11 51.14 4.25
-6 1 11 54.72 3.89
-6 -1 11 63.6 5.3
-8 3 0 12.66 4.37
-8 -3 0 13.62 6.78
8 3 0 13.88 3.42
-1 -7 12 81.05 3.02
-1 7 12 87.61 4.31
-1 -7 12 79.2 5.46
-1 7 12 80.62 4.89
-1 7 12 85.28 4.5
-7 1 -4 35.66 2.62
7 1 4 28.27 4.22
-7 -1 -4 30.21 7.12
7 -1 4 26.43 2.51
-7 -9 7 3.88 1.77
-7 9 7 3.69 2.51
7 9 -7 2.61 1.36
-7 9 7 3.38 1.59
-7 -9 7 2.89 1.16
-8 -6 4 38.05 4.38
-8 6 4 35.08 5.97
8 6 -4 35.09 2.97
-8 -6 4 40.42 2.24
-8 6 4 37.23 4.39
-3 19 4 17.87 3.1
-3 -19 4 14.03 2.02
3 19 -4 17.74 3.74
-3 19 4 15 1.97
5 12 5 53.06 3.38
-5 12 -5 50.4 2.89
5 12 5 52.29 3.12
-4 16 7 71.54 2.55
-4 16 7 65.28 3.31
-4 16 7 66.49 3.93
4 16 -7 72.77 5.99
-4 -16 7 71.32 3.3
-8 5 1 246.74 8.07
8 5 -1 250.39 9.12
-8 5 1 224.46 10.16
-8 -5 1 240.32 9.3
-8 -5 1 238.86 7.58
-5 -10 10 7.2 1.32
-5 -10 10 6.55 2.33
-5 10 10 7.22 2.34
-5 10 10 9.49 2.83
-8 -4 6 6.41 2.2
-8 4 6 4.55 1.9
-8 -4 6 5.8 2.62
-8 4 6 6.98 2.76
0 21 0 -0.12 1.09
-6 7 10 208.06 6.84
-6 -7 10 214.36 6.88
-6 7 10 214.37 7.44
-6 -7 10 201.17 6.78
1 8 11 10.01 2.76
1 -8 11 7.94 2.43
1 8 11 9.06 3.86
4 18 -4 36.96 3.69
-4 18 4 30.06 3.08
-4 -18 4 32.65 2.46
-4 18 4 37.01 2.12
5 0 8 0.8 1.24
3 12 8 312.58 13.76
3 12 8 298.01 12.2
3 -12 8 275.81 12.08
-5 -12 9 0.62 0.48
-5 -12 9 1.06 0.83
5 12 -9 1.46 0.45
-5 12 9 2.41 1.18
-5 12 9 2.62 1.3
-5 12 9 1.81 1.04
-6 14 5 29.86 2.76
-6 -14 5 28.75 4.47
-6 14 5 31.79 5.44
6 14 -5 30.2 2.99
2 14 8 5.12 2.27
2 14 8 4.22 1.41
-8 6 2 108.77 4.98
-8 6 2 111.56 5.64
8 6 -2 109.61 5.22
-8 -6 2 111.98 4.52
-8 -6 2 107.22 4.54
3 17 -7 8.81 3.77
-3 17 7 10.4 2.58
-3 17 7 14.21 4.45
-3 17 7 9.22 2.13
-3 -17 7 10.13 2.22
-6 10 -4 1.23 0.84
6 10 4 1.18 1
6 10 4 1.22 1.05
-6 -2 11 76.67 4.14
-6 -2 11 99.74 6.45
-6 2 11 104.39 4.5
-6 2 11 100.13 4.38
5 1 8 67.35 5.77
-2 -15 9 7.5 2.31
-2 15 9 4.7 1.86
-2 15 9 5.26 1.97
-2 15 9 7.59 2.06
6 4 6 0.81 1.1
-6 4 -6 1.25 1.61
6 -4 6 2.8 1.74
-1 15 9 0.57 0.88
-1 15 9 0.93 0.77
-1 -15 9 2.46 1.43
-1 15 9 2.75 1.19
-1 -15 9 1.58 0.8
-7 -2 -4 1.06 1.63
-7 2 -4 -0.4 1.03
7 -2 4 1.56 1.16
7 2 4 0.59 1.62
2 12 9 27.76 6.1
2 12 9 33.62 5.12
2 -12 9 26.1 2.31
-7 -11 5 0.54 0.89
-7 11 5 -0.09 0.52
-7 -11 5 0.35 0.36
7 11 -5 0.39 0.12
-7 11 5 -0.01 0.49
-4 -15 8 10.82 2.95
-4 15 8 15.8 3.76
-4 15 8 13.7 2.77
-4 15 8 13.73 4.91
4 15 -8 13.01 3.05
-1 20 4 4.93 2.34
-1 20 4 5.16 2.31
1 20 -4 3 1.97
-7 5 9 13.08 3.16
7 5 -9 9.45 1.54
-7 5 9 10.04 3.03
-7 -5 9 10.59 4.42
-7 -5 9 10.55 4.06
-4 18 -1 7.47 2.85
4 18 1 7.94 3.18
4 18 1 10.55 4.18
-2 11 11 4.46 1.51
-2 11 11 4.3 1.61
-2 11 11 3.16 1.27
-2 -11 11 3.44 2.05
-5 0 12 0.12 0.67
-5 0 12 0.5 0.97
4 -9 8 23.98 3.78
4 9 8 24.62 4.94
4 9 8 28.94 2.48
0 21 -1 65.74 3.68
0 21 1 65.13 4.57
-8 0 7 0.18 0.8
3 14 7 76.39 7.39
3 14 7 77.21 5.08
-5 1 12 23.24 6.12
-5 -1 12 19.13 6.83
-5 1 12 21.84 5.11
-5 -1 12 24.08 6.41
-8 1 7 4.33 1.36
-8 -1 7 2.46 1.67
-8 1 7 4.72 1.93
-8 -1 7 1.98 2.4
2 -18 5 37.15 1.33
2 18 5 38.77 3.03
2 18 5 43.24 3.21
3 16 -8 15.79 3.1
-3 -16 8 21 4.25
-3 16 8 18.48 6.26
-3 16 8 18.37 2.5
-3 16 8 18.17 3.32
1 0 12 1.17 0.67
1 0 12 0.23 0.41
-4 17 6 101.26 4.31
-4 -17 6 96.06 5.52
4 17 -6 104.44 5.12
-4 17 6 98.25 5.85
-4 17 6 92.71 5.69
4 5 9 8.79 3.52
4 5 9 11 4.76
4 -5 9 12.4 3.99
5 -2 8 107.79 5.51
5 2 8 103.44 6.22
0 -10 11 11.08 3.4
0 -10 11 9.63 3.2
0 10 11 11.73 3.62
0 10 11 9.89 2.88
6 8 5 279.6 13.54
-6 8 -5 291.29 6.84
6 8 5 276.7 13.62
4 16 4 3.34 1.76
4 16 4 4.42 1.76
-4 16 -4 2.31 1.25
0 20 -4 8.22 3.19
0 20 4 6.84 2.48
0 20 4 8.75 2.89
0 20 4 10.04 3.84
2 17 6 29.55 4.61
2 17 6 24.35 7.45
1 -1 12 10.34 3.05
1 1 12 7.6 2.41
1 1 12 13.13 1.62
1 -1 12 9.68 1.76
-5 17 2 13.47 2.31
5 17 -2 7.61 2.81
-5 -17 2 12.35 2.31
5 17 -2 10.78 4.66
-4 -6 12 188.4 12.86
-4 6 12 175.22 8.62
-4 6 12 190.81 8.85
3 19 2 72.87 6.6
-3 19 -2 64.29 4.16
3 19 2 61.77 4.21
-3 -18 6 270.35 10.98
3 18 -6 288.83 5.25
-3 18 6 266.55 12.25
-3 18 6 285.68 5.35
-8 4 0 1.33 1.24
8 4 0 0.46 1.06
-8 -4 0 0.38 0.5
-4 -12 10 2.5 1.21
-4 -12 10 2.95 0.99
-4 12 10 1.83 1.44
-4 12 10 3.48 2.08
-4 12 10 4.24 1.54
1 18 6 56.04 3.83
1 18 6 59.53 4.15
1 -18 6 55.92 2.98
0 6 12 63.16 4.06
0 6 12 66.54 5.81
0 -6 12 60.24 3.86
2 -5 11 26.54 5.39
2 5 11 29.85 2.16
2 5 11 31.86 2.93
-3 13 10 32.82 4.56
-3 13 10 34.05 4.08
-3 13 10 31.14 2.87
-3 13 10 30.54 4.56
-3 -13 10 31.25 4.76
-2 20 -2 38.13 1.61
-2 20 -2 37.27 2.98
2 20 2 34.71 6.62
2 20 2 36.52 4.26
-6 3 11 1.73 1.59
-6 -3 11 1.97 1.28
-6 3 11 0.69 0.99
-6 -3 11 1.95 1.95
-8 -6 5 0.16 0.58
8 6 -5 0.3 0.68
-8 6 5 0.88 1.43
-8 6 5 -0.17 0.76
-8 -6 5 0.62 0.47
-5 2 12 71.59 7.15
-5 -2 12 71.06 6.24
-5 2 12 68.71 6.65
-5 -2 12 75.68 4.33
-1 21 0 64.94 5.72
-1 21 0 56.63 2.99
1 21 0 65.96 6.05
-2 -8 12 0.13 0.21
-2 8 12 0.28 0.27
-2 8 12 1.06 0.95
-2 -8 12 0.65 0.98
-2 8 12 1.25 1.21
7 -3 4 40 2.86
7 3 4 40.18 7.15
-7 3 -4 45.49 2.46
-7 -3 -4 41.44 5.31
-8 -2 7 70.61 4.65
-8 -2 7 79 5.1
-8 2 7 76.36 4.68
-8 2 7 70.35 4.82
-1 -11 11 9.81 2.07
-1 -11 11 10.11 2.88
-1 11 11 12.27 3.35
-1 11 11 12.38 3.28
-1 11 11 10.18 3.13
-1 21 1 11.91 1.03
-1 21 1 12.02 3.66
1 21 -1 13.44 4.13
7 10 1 39.13 2.48
7 10 1 39.79 2.81
-7 10 -1 39.5 4.3
-7 -10 -1 36.62 2.24
5 17 -1 13.46 3.85
5 17 -1 13.18 4.46
-5 17 1 11.13 4.15
5 17 -3 110.03 5.34
-5 17 3 119.22 6.59
5 17 -3 116.9 6.53
-5 -17 3 117.52 5.77
1 -2 12 0.25 0.31
1 2 12 0.92 0.79
1 2 12 1.03 0.66
1 -2 12 2.47 1.27
4 15 5 4.69 2.28
-4 15 -5 3.48 1.7
4 15 5 3.39 1.32
4 17 3 1.43 1.6
4 17 3 1.38 1.06
-4 17 -3 1.92 1.95
-7 -8 8 17.95 2.36
7 8 -8 12.37 3.01
-7 8 8 17.67 2.59
-7 8 8 15.94 5.64
-7 -8 8 15.46 1.89
6 13 2 12.73 3.6
6 13 2 11.76 5.04
-6 13 -2 15.93 4.76
-8 -5 6 44.69 2.76
8 5 -6 41.52 2.52
-8 5 6 42.18 6.26
-8 -5 6 47.22 5.26
-8 5 6 40.67 4.27
3 6 10 7.17 3.66
3 -6 10 8.37 3.62
3 6 10 6.43 3.22
1 19 5 76.57 5.26
-1 19 -5 72.93 5.76
1 19 5 77.05 6.45
5 -3 8 7.27 2.59
5 3 8 4.18 3.6
-2 0 13 0.45 0.71
-2 0 13 0.31 0.45
-7 11 0 76.42 4.17
7 11 0 69.29 3.65
-7 -11 0 70.35 4.7
7 11 0 79.82 4.45
-8 -7 3 9.91 4.19
-8 7 3 11.88 4.29
-8 -7 3 16.4 4.63
8 7 -3 12.75 2.7
-8 7 3 13.63 4.58
5 8 7 1.41 1.06
5 8 7 6.48 2.39
5 -8 7 2.69 1.18
-6 -10 9 10.06 1.96
-6 10 9 8.91 4.72
6 10 -9 5.41 1.61
-6 -10 9 10.22 3.13
-6 10 9 9.71 3.91
-8 6 1 94.13 4.93
-8 -6 1 89.58 4.84
-8 -6 1 100.11 4.96
8 6 -1 94.79 5.29
1 -17 7 39.02 4.2
1 17 7 42.2 2.8
1 17 7 45.41 3.82
6 -5 6 25.78 3.16
-6 5 -6 20.52 6.5
6 5 6 25.81 4.44
6 5 6 26.55 4.44
-6 15 2 93.62 5.09
6 15 -2 90.06 6.14
-6 -15 2 85.09 4.3
6 15 -2 92.74 4.31
-2 1 13 40.33 3.72
-2 -1 13 44.59 3.97
-2 1 13 43.56 8.54
-2 -1 13 33.86 9.09
8 0 1 0 1.1
2 19 4 139.47 8.64
2 19 4 128.84 7.03
-2 19 -4 123.8 6.59
-7 12 3 30.31 5.15
-7 -12 3 36.25 2.07
7 12 -3 33.2 1.6
-7 -12 3 35.97 1.57
-7 12 3 34.25 4.78
7 12 -3 35.96 2.2
7 7 3 42.67 9.51
7 7 3 46.77 6.17
-7 -7 -3 46.36 3.84
-7 7 -3 47.15 2.55
6 15 -3 79.07 4.97
6 15 -3 87.03 3.9
-6 -15 3 88.57 4.6
-6 15 3 84.31 3.92
-6 15 3 79.7 6.85
-3 -11 11 4.26 2.73
-3 11 11 5.56 1.66
-3 11 11 8.91 3.37
-3 11 11 5.75 1.47
0 21 2 23.05 5.12
0 21 -2 18.18 3.74
8 -1 1 14.71 1.91
8 1 1 16.38 6.12
-8 -1 -1 19.64 5.09
-8 1 -1 14.94 4.35
-5 3 12 -0.53 1.01
-5 -3 12 1.01 0.71
-5 -3 12 -0.33 0.79
-5 3 12 -0.25 0.96
6 12 3 -0.1 0.88
6 12 3 -0.16 1.06
-6 12 -3 -0.06 0.66
-1 21 -1 137.41 6.81
1 21 1 159.06 9.49
-5 15 -3 7.4 2.91
5 15 3 7.5 4.61
5 15 3 6.88 3.03
-8 3 7 15.6 3
-8 -3 7 13.16 4
-8 -3 7 14.38 1.48
-8 3 7 11.12 4.39
3 10 9 72.34 4.43
3 -10 9 69.22 4.24
3 10 9 74.22 4.48
-8 7 4 3.04 2.32
-8 -7 4 6.9 2.74
-8 -7 4 5.68 2.37
-8 7 4 6.36 2.49
8 7 -4 6.07 3.09
-5 -8 11 9.63 2.94
-5 -8 11 6.8 2.33
-5 8 11 11.83 3.1
-5 8 11 9.06 3.04
-7 12 2 2.42 1.7
-7 -12 2 1.68 0.63
-7 -12 2 1.75 0.82
7 12 -2 2.05 0.8
7 12 -2 2.45 1.41
4 14 -9 41.93 1.77
-4 -14 9 42.61 2.85
-4 14 9 52.14 4.09
-4 14 9 45.97 5.22
-4 14 9 48.25 4.06
-4 -14 9 47.14 3.81
-4 10 11 3.3 2.65
-4 10 11 1.78 0.82
-4 10 11 1.54 1.14
-4 -10 11 3.66 2.2
-7 9 -2 48.38 3.83
-7 -9 -2 43.09 2.79
7 9 2 51 3.56
7 9 2 53.22 3.77
5 15 -7 66.71 3.55
-5 15 7 61.29 4.2
-5 15 7 62.46 3.14
-5 15 7 67.41 3.95
-5 -15 7 64.07 4
1 -3 12 88.09 4.84
1 -3 12 92.12 4.19
1 3 12 93.8 4.63
1 3 12 96.21 5.6
-3 8 12 43.09 3.16
-3 -8 12 53.33 3.77
-3 8 12 47.51 2.59
-3 8 12 42.28 5.57
1 -14 9 0.16 0.47
1 14 9 0.5 1.05
1 14 9 1.12 0.78
-6 4 11 65.37 4.88
-6 -4 11 56.23 5.79
-6 4 11 65.07 7.14
-6 -4 11 65.26 3.76
-7 -6 9 9.94 4.12
-7 6 9 11.42 2.77
-7 -6 9 10.79 2.01
-7 6 9 9.22 2.62
7 6 -9 6.84 1.67
2 16 7 1.76 1.14
2 16 7 3.32 1.62
-2 20 4 8.27 3.46
-2 20 4 5.64 2.87
2 20 -4 5.75 1.86
0 13 10 0.67 0.71
0 -13 10 0.97 0.6
0 -13 10 1.08 1.16
0 13 10 1.29 1.25
-2 2 13 2.45 1.02
-2 2 13 0.48 1.23
-2 -2 13 2.91 1.61
-2 -2 13 2.25 1.06
-1 21 2 45.92 1.46
-1 21 2 53.68 3.76
1 21 -2 49.57 4.68
-6 14 -1 2.54 1.28
6 14 1 2.16 1.99
6 14 1 2.06 1.06
-1 8 12 7.78 2.46
-1 -8 12 9.12 2.59
-1 8 12 10.65 3.75
-1 8 12 5.71 3.77
-1 -8 12 6.78 1.81
-7 -4 -4 63.77 4.25
7 -4 4 60.26 8.66
7 4 4 65.54 4.28
-7 4 -4 63 6.03
-1 -18 7 29.18 1.82
-1 18 7 26.76 2.25
1 18 -7 26.52 4.84
-1 18 7 28.51 2.52
-1 18 7 29.48 4.01
-1 18 7 34.97 3.46
-3 0 13 91.09 7.67
-3 0 13 68.3 8.05
3 17 5 54.49 6.64
3 17 5 59.01 4.79
-3 17 -5 54.05 3.11
-8 -7 2 6.78 2.39
-8 7 2 3.9 1.54
-8 7 2 6.38 1.79
-8 -7 2 6.74 2.17
8 7 -2 6.78 2.55
4 12 7 84.3 6.73
4 12 7 92.77 5.68
-5 14 -4 29 1.94
5 14 4 27.77 5.44
5 14 4 30.66 6.05
-8 -2 -1 12.75 4.63
8 -2 1 15.33 3.98
8 2 1 15.41 5.13
-8 2 -1 14.07 4.37
-8 5 0 -0.02 1.18
8 5 0 0.38 0.83
-8 -5 0 0.67 1
-3 15 9 5.41 2.28
3 15 -9 3.1 0.95
-3 15 9 5.09 2.1
-3 15 9 9.07 2.39
-3 -15 9 6.38 2.43
-3 -1 13 185.41 8.12
-3 1 13 169.04 7.54
-3 -1 13 191.65 9.35
-3 1 13 189.81 8.78
-6 8 10 1.18 1.04
-6 -8 10 0.48 0.88
-6 8 10 0.46 1.02
-6 -8 10 0.73 0.48
-7 -12 4 6.33 1.93
7 12 -4 3.83 1.95
-7 -12 4 4.25 1.38
-7 12 4 4.04 2.04
-7 12 4 5.14 1.77
7 12 -4 1.76 1.24
-6 13 7 3.2 1.29
-6 -13 7 3.24 1.11
6 13 -7 4.32 2.23
-6 13 7 5.68 2.36
-6 -13 7 6.22 1.32
0 15 9 0.26 1.32
0 15 9 1.56 1.1
0 -15 9 0.13 0.4
0 -15 9 1.07 0.61
4 6 9 58.66 7.88
4 -6 9 50.94 8.39
4 6 9 55.09 6.24
-5 -14 8 32.97 4.07
-5 14 8 35.92 5.04
-5 14 8 38.87 2.68
-5 14 8 32.9 4.64
5 14 -8 33.51 2.97
-5 -14 8 32.42 2
-6 15 1 3.58 1.89
6 15 -1 2.78 0.88
6 15 -1 1.89 2.42
-6 -15 1 3.05 1.34
-3 20 1 6.65 3.07
3 20 -1 7.16 3.35
-3 20 1 6.46 2.35
-7 0 10 0.17 0.44
-7 0 10 0.38 0.76
-1 19 6 238.41 12.22
1 19 -6 217.45 10.48
-1 -19 6 200.1 8.22
-1 19 6 220.69 9.96
-1 19 6 219.6 12.5
-5 17 0 13.57 4.22
5 17 0 13.86 3.56
5 17 0 11.44 5.62
-3 18 -4 88.14 4.64
3 18 4 90.81 4.86
3 18 4 93.95 5.21
5 -4 8 11.73 2.92
5 4 8 10.68 4.03
5 4 8 10.72 4.17
5 17 -4 41.45 4.03
-5 17 4 37.68 2.12
-5 17 4 38.74 5.41
-5 -17 4 42.38 2.45
2 10 10 1.88 0.81
2 -10 10 1.13 1.07
2 10 10 0.41 0.97
-4 -18 5 0.42 0.47
-4 18 5 0.49 0.54
-4 18 5 1.07 1.09
4 18 -5 1.02 1.11
-7 1 10 159.31 7.53
-7 1 10 162.45 8.01
-7 -1 10 154.54 10.41
-7 -1 10 172.13 8.24
1 9 11 3.61 1.51
1 9 11 3.61 1.26
1 -9 11 2.34 1.4
2 6 11 32.85 6.76
2 6 11 20.82 4.47
2 -6 11 16.93 5.75
-5 16 -2 1.32 1.05
5 16 2 0.76 1.34
5 16 2 0.49 0.63
-3 20 2 5.55 2.2
-3 20 2 4.14 2.46
3 20 -2 4.46 1.92
-7 -11 6 0.64 0.9
-7 11 6 1.41 1.35
7 11 -6 0.37 0.8
-7 -11 6 1.07 0.86
-7 11 6 0.88 1.06
-6 15 4 80.9 4.42
6 15 -4 83.56 4.31
-6 -15 4 82.51 5.4
-6 15 4 76.76 4.17
-7 10 7 37.69 2.32
-7 -10 7 37.82 4.06
-7 -10 7 41.14 4.23
7 10 -7 32.58 1.77
-7 10 7 39.56 3.08
-3 2 13 5.1 1.33
-3 -2 13 4.14 1.25
-3 -2 13 5.81 2.56
-3 2 13 5.23 2.61
1 12 10 0.29 0.58
1 12 10 1.07 0.89
3 19 -5 8.38 3.25
-3 19 5 6.75 2.6
-3 19 5 7.24 3.09
-3 -19 5 6.97 1.57
-5 16 6 0.6 1.26
-5 16 6 0.14 0.78
-5 16 6 0.21 0.35
5 16 -6 0.86 0.86
-5 -16 6 0.57 0.52
-2 18 7 53.35 2.76
-2 18 7 58.64 6.61
-2 18 7 58.14 4.05
-2 -18 7 57.93 3.5
2 18 -7 59.09 6.3
-4 7 12 3.86 1.4
-4 7 12 8.17 2.37
-4 7 12 4.49 1.4
-4 -7 12 5.8 1.75
-6 -14 6 3.52 2.18
-6 14 6 6.16 2.57
6 14 -6 5.01 2.05
-6 14 6 5.75 2.4
-2 3 13 2.67 1.06
-2 -3 13 0.9 0.76
-2 -3 13 2.18 0.86
-2 3 13 3.5 1.94
-5 4 12 60 4.29
-5 -4 12 61.29 4.31
-5 -4 12 60.61 4
-5 4 12 55.68 6.08
-1 0 13 101.36 7.44
-1 0 13 92.6 5.21
-8 4 7 25.39 4.04
-8 -4 7 24.72 3.35
-8 -4 7 26.53 3.57
-8 4 7 22.67 7.1
5 11 6 53.89 4.51
-5 11 -6 49.94 3.61
5 11 6 51.62 3.66
3 16 6 14.87 5.62
3 16 6 18.44 6.34
0 7 12 6.43 2.7
0 7 12 7.65 1.9
0 -7 12 8.68 1.89
-1 -17 8 44.56 3.33
-1 17 8 47.53 3.94
-1 17 8 47.04 5.92
-1 17 8 43.47 2.64
6 12 -8 0.31 0.33
-6 12 8 0.39 0.7
-6 -12 8 0.6 0.47
-6 -12 8 0.34 0.73
-6 12 8 0.64 0.81
-8 7 5 6.79 2.04
-8 -7 5 5.21 1.92
8 7 -5 3.22 1.05
-8 -7 5 4.96 1.46
-8 7 5 4.44 1.93
3 20 0 19.08 5.28
-3 20 0 19.09 6.66
-3 20 0 18.64 3.07
3 20 0 18.09 3.75
8 3 1 14.32 4.84
-8 3 -1 16.12 4.49
-8 -3 -1 13.74 3.44
7 12 -1 24.25 5.4
-7 -12 1 18.95 3.15
-7 -12 1 19.03 2.4
-7 12 1 24.95 2.56
7 12 -1 21.39 2.77
4 14 6 2.56 2.59
-4 14 -6 0.12 0.39
4 14 6 0.51 0.82
-1 -1 13 17.4 5.69
-1 1 13 17.63 3.43
-1 -1 13 11.86 3.6
-1 1 13 11.82 4.09
8 6 -6 19.21 1.54
-8 -6 6 22.71 3.22
-8 6 6 20.62 7.33
-8 6 6 28.57 3.44
-8 -6 6 18.76 3.58
-7 -2 10 4.68 2.39
-7 2 10 4.16 3.08
-7 2 10 5.39 2.21
-7 -2 10 4.33 2.04
1 -4 12 52.18 5.19
1 4 12 53.16 5.91
1 4 12 50.1 4.59
1 -4 12 46.56 1.78
4 18 2 40.07 8.61
-4 18 -2 39.5 1.91
4 18 2 47.14 2.41
1 20 4 0.64 1.28
1 20 4 0.89 0.49
-1 20 -4 0.44 0.69
1 20 4 0.93 0.59
-5 -11 10 45.11 4.84
-5 -11 10 39.51 3.37
-5 11 10 45.79 2.81
-5 11 10 48.16 3.37
-4 19 2 36.43 2.21
4 19 -2 38.76 3.62
-4 -19 2 32.56 2.47
-4 19 2 30.62 5.74
4 19 -2 28.15 4.79
-2 17 8 26.21 1.96
-2 17 8 21.94 5.2
-2 -17 8 23.93 2.05
2 17 -8 24.64 2.09
-2 17 8 26.43 2.35
-2 17 8 24.55 2.88
-4 19 1 22.53 2.87
4 19 -1 23.14 3.78
-4 19 1 28.44 4
4 19 -1 26.09 4.34
6 -6 6 4.22 1.49
6 6 6 1.93 1.66
-6 6 -6 2.18 1.1
6 6 6 5.11 2.38
6 9 5 2.08 2.06
6 9 5 2.15 1.2
-6 9 -5 -0.12 3.79
4 10 8 2.15 1.43
4 10 8 4.61 3.16
4 -10 8 2.93 1.7
3 -7 10 29.92 5.92
3 7 10 32.04 2.49
3 7 10 40.27 5.5
-2 14 10 0.48 0.74
-2 -14 10 0.37 0.71
-2 14 10 -0.26 1.36
-2 14 10 0.72 0.88
-6 11 -4 16.26 5.74
6 11 4 12.45 5.58
6 11 4 19.34 2.51
-6 -5 11 11.43 3.99
-6 5 11 12.31 3.5
-6 5 11 12.79 1.76
-6 -5 11 9.06 3.41
-2 -19 6 4.02 1.91
-2 19 6 4.67 3.26
-2 19 6 4.4 2.4
2 19 -6 6.06 2.55
1 -16 8 6.95 2.39
1 16 8 10.66 3.96
1 16 8 12.45 4.39
1 21 2 10.34 4.62
-1 21 -2 9.31 1.91
7 5 4 22.8 5.08
-7 5 -4 22.34 6.46
-7 -5 -4 21.44 4.05
7 -5 4 18.91 5.75
0 19 6 111.44 5.86
0 19 6 120.24 6.89
0 19 -6 105.33 6.15
0 -19 6 107.2 4.64
0 19 6 125.4 10.02
-1 2 13 4.99 1.78
-1 2 13 5.49 2.12
-1 -2 13 4.39 1.83
-1 -2 13 3.74 1.3
-3 -3 13 0.72 0.87
-3 3 13 -0.24 0.97
-3 3 13 0.51 0.44
-3 -3 13 2.38 1.28
0 18 7 57.55 6.92
0 18 7 57.01 5.01
0 18 7 53.11 2.79
0 -18 7 59.32 3.92
8 7 -1 6.72 3.35
-8 -7 1 8.58 3.56
-8 -7 1 9.09 2.63
-8 7 1 5.25 2.32
-2 9 12 1.71 2.54
-2 9 12 1.05 0.72
-2 9 12 1.95 1.15
-2 -9 12 3.07 2.04
5 13 5 45.02 3.07
-5 13 -5 46.67 2.61
5 13 5 40.26 2.88
-1 14 10 0.56 0.67
-1 14 10 0.47 1
-1 14 10 1.37 1.42
-7 3 10 4.88 2.15
-7 -3 10 3.93 2.51
-7 3 10 8.85 1.55
-7 -3 10 4.22 2.47
-3 20 3 13.84 5.09
3 20 -3 12.5 4.89
-3 20 3 13.55 1.72
-7 12 5 51.85 4.15
7 12 -5 45.37 2.57
-7 12 5 53.77 5.11
-7 -12 5 49.42 4.8
-7 -12 5 44.59 2.08
8 8 -3 95.5 4.96
-8 -8 3 101.83 4.86
-8 8 3 101.68 5.67
-8 8 3 104.06 5.21
-8 -8 3 103.36 8.54
8 8 -3 90.49 5.16
-2 20 -3 8.76 3.45
2 20 3 6.77 3.15
-2 20 -3 8.36 2.66
2 20 3 7.85 3.92
-2 21 1 6.35 2.48
2 21 -1 8.03 2.62
-2 21 1 5.16 1.63
5 5 8 57.93 4.53
5 -5 8 50.55 5.36
5 5 8 51.58 4.91
0 11 11 48 4.36
0 11 11 44.9 6.12
0 -11 11 41.85 4.07
0 -11 11 47.69 5.14
3 -13 8 3.47 2.06
3 13 8 3.51 2.02
3 13 8 5.27 3.11
-2 -4 13 0.04 1.57
-2 4 13 1.08 1.05
-2 -4 13 1.56 0.96
-2 4 13 1.02 1.01
-2 12 11 0.93 0.7
-2 -12 11 0.8 1.05
-2 12 11 0.25 0.79
-2 12 11 0.15 0.47
-1 21 3 14.15 2.93
1 21 -3 12.9 5.28
-1 21 3 17.02 5.89
-8 -6 0 158.07 7.34
-8 6 0 157.91 7.96
8 6 0 158.4 7.48
-5 -13 9 92.03 4.62
-5 -13 9 97.26 4.4
-5 13 9 94.77 5.79
5 13 -9 92.94 4.94
-5 13 9 90.31 6.56
-5 13 9 94.27 5.11
0 21 3 50.83 2.62
0 21 3 50.5 6.28
0 21 -3 49.25 4.56
-7 -9 8 0.8 0.4
-7 9 8 -0.11 0.97
-7 -9 8 0.62 0.69
7 9 -8 0.2 0.41
-7 9 8 0.09 0.63
1 20 -5 29.06 4.67
-1 20 5 29.31 3.8
-1 20 5 32 4.74
-7 8 -3 112.05 5.88
7 8 3 122.04 7.41
7 8 3 114.02 6.09
-4 -19 3 4.46 1.52
-4 19 3 5.01 2.04
4 19 -3 5.75 1.78
-4 19 3 4.96 2.49
-6 15 0 24.3 4.85
6 15 0 27.33 4.85
6 15 0 29.03 2.6
-7 7 9 152.54 7.14
-7 7 9 153.59 8.19
-7 -7 9 154.9 7.43
-7 -7 9 147.12 7.31
7 7 -9 148.74 6.22
3 19 3 0.19 1.02
3 19 3 1.36 0.59
-3 19 -3 0.5 0.42
8 4 1 53.14 6.51
-8 -4 -1 54.74 4.42
-8 4 -1 59.12 4.25
2 13 9 1.82 1.03
2 -13 9 0.68 0.72
2 13 9 0.92 0.89
-2 21 0 2.2 2.66
2 21 0 6.04 2.52
-2 21 0 5 1.32
-8 -8 4 140.11 6.49
8 8 -4 134.68 6.29
-8 8 4 142.48 7.24
8 8 -4 141.6 7.44
-8 -8 4 144.77 7.19
-8 8 4 157.07 8.26
5 9 7 14.7 4.48
5 -9 7 15.92 2.66
5 9 7 19.9 2.5
-8 0 8 31.72 5.05
-8 0 8 30.36 2.89
-5 5 12 1.18 0.89
-5 -5 12 0.12 0.77
-5 -5 12 1.55 1.01
-5 5 12 1.64 1.93
-4 19 0 118.61 5.46
4 19 0 128.65 5.98
4 19 0 120.01 6.33
-1 -3 13 26.07 7.63
-1 3 13 20.53 2.47
-1 -3 13 27.87 3.88
-1 3 13 28.04 6.76
-8 -5 7 76.88 5.75
-8 -5 7 83.37 5.17
-8 5 7 87.89 5.95
-8 5 7 91.03 5
8 5 -7 82.6 4.17
4 7 9 1.11 0.8
4 7 9 0.73 1.41
-7 11 -1 4.94 2.08
-7 -11 -1 5.33 1.68
7 11 1 7.81 2.97
7 11 1 6.41 2.95
-8 -1 8 0.72 0.68
-8 1 8 0.79 0.62
-8 -1 8 0.04 0.76
-8 1 8 3.5 2.99
-8 8 2 23.01 2.4
-8 8 2 23.42 4.39
8 8 -2 25.57 2.9
-8 -8 2 25.2 1.73
8 8 -2 22.99 2.21
-8 -8 2 22.86 4.09
1 -5 12 6.26 2.27
1 -5 12 3.45 1.34
1 5 12 5.33 3.13
1 5 12 3.46 1.44
-3 20 -1 0 0.85
-3 20 -1 1.09 0.58
3 20 1 1.21 1.05
3 20 1 3.19 2.96
-5 -9 11 3.74 2.16
-5 9 11 9.14 4.5
-5 9 11 8.08 3.08
-5 -9 11 7.35 2.97
2 21 -2 36.89 4.47
-2 21 2 31.56 2.64
-2 21 2 32.19 1.58
-6 15 5 3.39 1.22
6 15 -5 1.4 1.13
-6 15 5 3.46 2.65
-6 -15 5 2.96 1.41
2 15 8 16.55 5.06
2 15 8 24.6 4.63
-3 4 13 0.29 1.07
-3 -4 13 0.18 0.85
-3 4 13 2.54 0.94
-3 -4 13 0.96 0.66
2 7 11 18.68 6.74
2 7 11 25.88 5.1
2 -7 11 21.75 5.09
-3 9 12 6.78 3.08
-3 9 12 7.46 3.38
-3 9 12 6.49 3.43
-3 -9 12 8.36 2.94
-1 12 11 8.19 2.46
-1 -12 11 6.54 2.38
-1 -12 11 3.92 1.66
-1 12 11 6.99 2.3
-1 12 11 6.51 4.98
0 20 -5 -0.88 0.98
0 20 5 0.41 0.63
0 20 5 0.64 1.37
0 20 5 0.5 1.58
-5 17 -1 19.42 4.32
5 17 1 17.28 4.82
5 17 1 15.39 4.34
-4 13 10 46.83 5.22
-4 -13 10 45.08 2
-4 -13 10 48 5.89
-4 13 10 45.69 5.69
-4 13 10 45.16 3.78
-1 -9 12 6.14 2.41
-1 -9 12 12.81 4.4
-1 9 12 10.98 2.94
-1 9 12 11.09 5.15
-1 9 12 8.51 3.41
0 17 8 3.41 1.37
0 -17 8 2.7 1.66
0 17 8 3.12 1.12
0 17 8 4.66 2.32
-5 17 5 12.5 4.81
5 17 -5 11.71 3.79
-5 -17 5 14.47 2.42
-5 17 5 11.29 4.95
-5 17 5 10.12 1.71
-6 11 9 0.64 0.54
6 11 -9 0.61 0.4
-6 -11 9 0.95 1
-6 11 9 0.27 1.08
-4 0 13 0.98 1.03
-4 0 13 0.5 0.43
-8 -2 8 105.46 5.25
-8 2 8 105.18 7.65
-8 -2 8 103.68 5.57
-8 2 8 110.1 6.89
-7 10 -2 14.81 5.53
7 10 2 13.25 3.7
7 10 2 12.57 6.05
-7 -4 10 0.43 1.01
-7 -4 10 0.55 0.64
-7 4 10 0.6 1.41
7 4 -10 0.6 0.57
-7 4 10 0.35 0.54
3 15 7 55.14 6.54
3 15 7 54.1 6.66
-6 9 10 1.57 1.46
-6 -9 10 0.26 1.01
-6 9 10 1.54 1.56
-6 -9 10 0.75 0.92
4 17 -7 0.88 0.64
-4 17 7 0.79 0.99
-4 -17 7 0.56 0.68
-4 17 7 1.22 1
-4 17 7 -0.02 0.3
-2 16 9 135.84 6.47
-2 16 9 131.7 7.44
-2 16 9 138.88 8.22
-2 16 9 135.54 7.35
-2 -16 9 124.32 5.7
-4 1 13 15.52 6.14
-4 1 13 12.79 3.48
-4 -1 13 11.97 1.76
-4 -1 13 18.93 6.54
-1 16 9 60.27 4.95
-1 16 9 64.2 5.79
-1 16 9 59.67 4.94
-1 -16 9 64.9 5.44
-7 12 0 0.41 0.92
-7 -12 0 0.26 0.63
7 12 0 1.34 1.56
7 12 0 0.48 0.45
8 7 -6 106.72 5.43
-8 -7 6 112.87 6.28
-8 7 6 112.11 6.4
-8 7 6 108.23 6.65
-8 -7 6 106.28 5.52
8 7 -6 108.21 4.96
3 11 9 2.66 1.79
3 11 9 4.65 1.49
3 -11 9 3.67 2.14
-4 -16 8 76.02 4.24
-4 16 8 64.1 6.46
4 16 -8 73.32 4.54
-4 16 8 67.59 3.5
-4 16 8 69.6 4.37
-3 14 10 22.49 3.77
-3 14 10 23.33 2.71
-3 14 10 23.18 1.83
-3 14 10 23.27 5.06
-3 -14 10 20.46 4.22
-4 8 12 14.83 4.55
-4 8 12 21.37 5.45
-4 -8 12 21.3 6.22
-4 8 12 19.13 4.04
-6 6 11 0.75 1.11
-6 -6 11 0.48 0.72
-6 6 11 0.49 0.47
-6 -6 11 0.57 0.65
-4 11 11 72.3 4.08
-4 -11 11 80.91 5.71
-4 11 11 75.91 4.15
-4 11 11 77.59 8.59
-7 6 -4 8.65 2.57
7 6 4 10.51 2.69
7 -6 4 10.48 4.48
0 -8 12 3.22 1.74
0 -8 12 3.39 1.71
0 8 12 4.38 1.79
0 8 12 4.79 1.93
-2 21 -1 32.12 5.18
2 21 1 33.98 4.62
-2 21 -1 26.35 2.01
2 21 1 26.6 3.1
-3 -12 11 6.73 2.02
-3 12 11 4.6 1.8
-3 12 11 7.08 2.72
-3 12 11 6.16 2.54
6 7 6 1.63 1.31
6 -7 6 0.61 0.98
-6 7 -6 2.59 1.15
6 7 6 3.13 1.9
8 8 -5 3.96 1.24
-8 8 5 3.07 2.06
-8 -8 5 3.49 1.88
8 8 -5 5.89 1.84
-8 -8 5 1.98 1.44
-8 8 5 3.94 1.88
-2 5 13 115.07 4.92
-2 -5 13 99.12 4.97
-2 5 13 111.14 4.67
-2 -5 13 106.89 6.57
-2 20 5 4.51 2.29
-2 20 5 6.62 2.59
2 20 -5 6.09 2.45
-1 4 13 55.61 5.13
-1 -4 13 65.42 2.96
-1 4 13 52.65 1.85
-1 4 13 67.61 3.46
-1 -4 13 68.77 5.15
-4 -2 13 0.07 0.21
-4 -2 13 0.7 0.9
-4 2 13 0.27 1.08
-8 -5 -1 191.96 6.9
8 5 1 185.7 9.41
-8 5 -1 177.59 9.11
6 14 2 10.76 5.82
-6 14 -2 13.28 4.21
6 14 2 12.06 3.55
-7 -13 3 110.01 4.04
7 13 -3 109.69 4.43
-7 -13 3 107.01 4.68
-7 13 3 113.17 4.52
-7 13 3 104.67 5.8
7 13 -3 114.38 3.95
-3 -18 7 32.96 2.97
-3 18 7 31.51 3.04
3 18 -7 27.4 4.33
-3 18 7 31.19 2.39
1 -10 11 82.57 4.09
1 10 11 69.31 7.93
1 10 11 82.45 4.18
6 0 7 1.24 1.2
5 -6 8 1.83 0.82
5 6 8 1.14 1.21
5 6 8 1.53 0.8
-8 3 8 116.21 5.42
-8 -3 8 117.3 5.81
-8 3 8 115.06 7.14
-8 -3 8 106.91 4.69
6 13 3 47.13 3.42
-6 13 -3 42.32 4.65
6 13 3 44.22 4.45
3 8 10 9.6 3.13
3 8 10 7.25 2.26
3 -8 10 8.63 2.93
-3 17 8 1.32 0.99
3 17 -8 0.68 0.57
-3 17 8 0.49 0.8
-3 17 8 0.23 0.55
-3 -17 8 0.95 0.46
-4 19 4 1.14 1.13
4 19 -4 2.19 1.54
-4 -19 4 0.23 0.43
-4 19 4 0.29 0.93
6 1 7 11.72 2.63
6 -1 7 11.1 3.67
8 0 2 44.43 5.36
-8 0 -2 53.15 3.03
-7 13 2 28.16 6.61
7 13 -2 28.33 5.08
-7 -13 2 21.44 5.72
7 13 -2 25.24 1.59
-7 -13 2 26.18 2.64
4 17 4 34.73 7.96
4 17 4 42.77 3.31
-4 17 -4 40.16 3.25
2 -11 10 16.43 5.34
2 11 10 18.71 4.1
2 11 10 20.97 6.22
-3 20 4 0.27 0.63
-3 20 4 0.51 0.58
3 20 -4 0.5 0.72
-8 1 -2 7.76 3.07
-8 -1 -2 7.67 3.26
8 -1 2 11.35 4.3
8 1 2 7.34 3.43
-8 -8 1 17.63 4.55
8 8 -1 15.21 3.29
-8 -8 1 14.31 4.81
8 8 -1 14.45 6.16
-8 8 1 16.43 6.05
-5 -6 12 61.37 3.16
-5 6 12 53.13 7.3
-5 6 12 55.35 3.52
-5 -6 12 51.36 4.88
-8 7 0 15.23 5.5
8 7 0 17.4 3.27
-8 -7 0 14.66 4.24
7 11 -7 2.98 0.82
-7 11 7 5.52 1.74
-7 -11 7 5.23 1.79
-7 -11 7 3.39 1.16
-7 11 7 3.95 1.36
-3 -5 13 7.78 2.47
-3 -5 13 10.68 4.88
-3 5 13 13.23 3.43
-3 5 13 10.88 4.34
-8 6 7 6.44 2.79
-8 -6 7 5.51 2.35
8 6 -7 3.54 1.76
-8 -6 7 6.68 3.25
-8 6 7 7.05 2.39
4 13 7 9.77 5.12
4 13 7 12.29 4.32
2 21 -3 1.48 0.89
-2 21 3 1.22 1.07
-2 21 3 1.36 2.39
-4 18 6 53.31 7.17
-4 18 6 63.84 3.33
-4 -18 6 60.21 5.06
4 18 -6 53.58 7.23
-1 21 -3 3.35 1.6
1 21 3 3.71 1.91
1 21 3 3.35 1.24
7 0 5 2.91 1.78
-7 0 -5 2.43 1.18
4 16 5 80.74 5.03
4 16 5 86.22 5.05
-4 16 -5 86.61 4.69
4 19 1 138.7 6.34
-4 19 -1 127.37 5.05
4 19 1 124.31 5.64
3 0 11 89.08 6.4
3 0 11 85.56 4.21
2 18 6 1.76 1.48
2 18 6 0.24 0.59
2 -18 6 -0.08 0.46
1 -6 12 0.7 0.37
1 6 12 0.79 0.49
1 6 12 0.31 1.02
-5 18 2 6.82 2.53
5 18 -2 7.96 2.96
-5 -18 2 7.08 1.2
5 18 -2 4.61 1.99
-7 -13 4 5.33 2.11
-7 -13 4 7.72 2.26
-7 13 4 6.42 2.42
-7 13 4 8.97 4.23
7 13 -4 5.89 2.25
6 2 7 6.62 2.39
6 -2 7 6.68 3.06
7 -1 5 19.52 7.2
-7 -1 -5 24.1 7.58
7 1 5 22.19 6.2
-7 1 -5 23.83 6.24
-7 12 6 15.07 6.2
-7 -12 6 15.01 2.1
-7 -12 6 18.84 3.45
7 12 -6 13.53 4.82
-7 12 6 15.54 2.31
-6 10 -5 127.42 6.06
6 10 5 131.55 7.05
6 10 5 136.45 6.89
0 -14 10 9.14 3.02
0 14 10 14.18 3.3
0 -14 10 8.74 4.38
0 14 10 10.01 4.19
-4 3 13 7.66 2.65
-4 -3 13 10.14 3.09
-4 -3 13 4.88 2.19
-4 3 13 4.56 1.85
3 -1 11 9.14 3.65
3 -1 11 8.17 2.42
3 1 11 6.03 2.19
3 1 11 8.84 2.43
-7 5 10 41.8 7.46
-7 -5 10 36.39 6.31
-7 -5 10 43.21 2.61
-7 5 10 37.19 5.44
2 19 5 5.95 2.81
2 19 5 3.51 1.97
-8 2 -2 0.65 0.8
8 2 2 0.79 1.2
8 -2 2 0.41 1.22
-8 -2 -2 1.41 1.16
-7 8 9 3.21 1.55
-7 -8 9 3.68 1.06
7 8 -9 2.63 1.07
-7 8 9 2.59 1.84
-7 -8 9 2.97 1.47
-4 -15 9 7.19 2.18
-4 15 9 5.22 2.61
-4 15 9 8.26 2.04
-4 15 9 8.15 3.46
4 15 -9 2.91 1.04
6 16 -2 2.53 0.85
-6 -16 2 4.67 1.92
6 16 -2 2.83 1.66
-6 16 2 4.01 2.29
5 12 6 1.74 0.62
-5 12 -6 3.05 1.51
5 12 6 6.11 2.07
-8 9 3 2.76 1.32
8 9 -3 3.1 1.74
-8 -9 3 2.19 1
-8 9 3 3.67 1.83
-8 -9 3 1.62 1.15
8 9 -3 0.88 0.99
-6 14 7 166.39 5.61
-6 14 7 174.52 7.36
-6 -14 7 171 9.52
6 14 -7 162.93 5.56
6 16 -3 0.52 0.25
6 16 -3 1.85 1
-6 16 3 0.54 0.87
-6 -16 3 0.92 0.92
1 15 9 54.95 3.82
1 -15 9 38.12 4.12
1 15 9 48.02 3.26
1 -15 9 46.42 5.3
0 1 13 28.85 4.05
0 -1 13 31.05 3.79
-3 19 6 25.98 5.71
-3 -19 6 27.55 2.6
3 19 -6 24.75 3.33
-3 19 6 29.01 2.32
4 0 10 12.47 3.97
6 15 1 48.09 2.87
6 15 1 48.7 3.29
-6 15 -1 46.31 3.4
-2 10 12 225.15 4.68
-2 10 12 218.63 8.9
-2 10 12 213.1 9.11
-2 -10 12 231.32 5.1
5 18 -1 1.56 1.67
5 18 -1 2.74 1.51
-5 18 1 1.72 1.07
4 11 8 65.69 4.13
4 11 8 64.2 3.81
4 -11 8 59.79 3.49
-5 16 -3 0.53 0.63
5 16 3 1.31 1.28
5 16 3 0.9 1.37
1 -13 10 2.32 0.76
1 13 10 1.41 1.05
1 13 10 1.79 1.2
7 9 3 13.27 4.24
7 9 3 13.24 4.91
-7 9 -3 9.96 3.37
-5 -18 3 11.48 2.82
5 18 -3 14.6 5.1
5 18 -3 7.49 2.47
-5 18 3 14.38 5.47
0 22 0 123.15 8.38
1 -19 6 8.76 2.95
1 19 6 12.32 4.54
1 19 6 7.96 3.41
5 15 4 69.2 3.98
5 15 4 68.36 3.79
-5 15 -4 68.6 3.22
7 2 5 26.8 7.29
-7 -2 -5 27.53 6.49
-7 2 -5 25.55 3.08
7 -2 5 31.31 6.01
-1 21 4 2.05 1.21
-1 21 4 1.48 1.01
1 21 -4 -0.12 0.77
4 8 9 0.2 0.35
4 -8 9 2.12 1.56
4 18 3 152.96 5.79
-4 18 -3 135.35 7.05
4 18 3 144.28 7.99
-8 4 8 7.2 2.96
-8 -4 8 5.9 2.06
-8 4 8 7.42 2.62
-8 -4 8 8.49 3.33
-5 12 10 33.88 5.53
-5 12 10 35.14 5.47
-5 -12 10 31.56 3.6
-5 12 10 35.96 3.39
-5 -12 10 39.2 5.25
4 1 10 31.25 5.24
4 -1 10 22.71 4.7
4 1 10 25.4 5.54
3 -2 11 18.72 4.43
3 2 11 11.23 4.27
3 2 11 12.14 3.04
-1 -5 13 1.29 0.53
-1 5 13 1.24 0.75
-1 -5 13 1.61 1.41
-1 5 13 1.25 1.89
-1 5 13 1.24 0.75
-5 -16 7 13.9 2.08
-5 16 7 15.11 1.93
5 16 -7 13.65 2.61
-5 16 7 13.25 4.66
-5 16 7 13.18 2.51
-8 -9 4 38.53 4.19
-8 9 4 35.35 3.2
-8 -9 4 33.53 1.76
8 9 -4 34.16 1.77
-8 9 4 37.28 5.27
8 9 -4 33.1 3.76
-6 -13 8 1.26 0.93
-6 13 8 0.6 1.05
-6 -13 8 3.1 1.39
-6 13 8 2.13 1.12
6 13 -8 1.01 0.7
-5 15 8 4.58 2.92
-5 15 8 5.21 2.73
-5 15 8 4.91 2.09
5 15 -8 2.36 1.62
-5 -15 8 5.7 2.82
3 20 2 9.54 2.75
3 20 2 9.67 4.13
-3 20 -2 11.15 1.94
7 13 -1 53.04 4.01
-7 13 1 52.35 5.3
-7 -13 1 53.9 2.43
-7 -13 1 47.48 2.29
7 13 -1 51 2.11
-7 10 8 15.24 4.3
-7 -10 8 14.37 1.89
7 10 -8 9.79 3.28
-7 10 8 18.98 6.2
-7 -10 8 15.17 2.91
2 8 11 0.7 1.17
2 -8 11 0.66 0.85
2 8 11 0.19 0.73
6 3 7 71.72 6.09
6 -3 7 72.92 6.4
6 12 4 74.52 4.3
-6 12 -4 74.48 4.51
6 12 4 82.5 5.37
1 18 7 9.08 2.43
1 -18 7 6.26 2.91
1 18 7 11.75 4.77
0 -2 13 27.93 3.75
0 2 13 24.36 2.82
0 2 13 28.01 6.38
-2 -6 13 6.26 3.54
-2 6 13 5.41 2.1
-2 -6 13 4.36 1.8
-2 6 13 5.86 2.91
-2 6 13 10.14 4.78
0 21 -4 31.72 3.79
0 21 4 37.3 2.67
0 21 4 31.93 1.29
-3 16 9 24.01 1.64
-3 16 9 21.15 6.38
3 16 -9 17.93 3.7
-3 -16 9 22.67 4.55
-3 16 9 21.23 5.12
0 22 -1 6.13 3.56
0 22 1 5.96 2.95
-8 9 2 1.21 0.77
8 9 -2 1.11 1.02
-8 9 2 2.28 1.16
-8 -9 2 1.59 1.12
-8 -9 2 1.12 0.72
8 9 -2 2.6 1.68
0 16 9 173.45 5.81
0 -16 9 166.74 5.77
0 16 9 175.88 7.98
0 16 9 164.36 7.71
0 -16 9 177.64 6.01
8 3 2 8.17 4.23
-8 3 -2 8.29 2.45
8 -3 2 14.3 3.14
-8 -3 -2 8.47 3.03
5 10 7 32.1 3.44
5 -10 7 28.8 3.55
5 10 7 26.82 3.31
-6 -7 11 130.58 5.38
-6 7 11 120.08 6.58
-6 7 11 123.88 5.53
-6 -7 11 116.21 6.48
2 17 7 4.15 2.44
2 17 7 3.96 2.49
6 16 -1 3.38 1.8
6 16 -1 3.53 3.06
-6 16 1 7.07 2.8
-8 -6 -1 2.96 1.03
-8 6 -1 2.66 1.07
8 6 1 2.7 1.5
4 -2 10 91.26 5.03
4 2 10 96.39 5.07
4 2 10 89.95 4.39
7 7 4 0.82 0.92
-7 7 -4 0.91 1.35
7 7 4 1.38 1.3
2 21 2 4.41 2.01
-2 21 -2 -0.34 1.05
-2 21 -2 2.2 0.77
2 21 2 0.93 0.72
-4 4 13 130.04 5.12
-4 4 13 141.6 6.89
-4 -4 13 135.22 8.56
6 15 -6 8.96 3.21
-6 15 6 11.68 2.21
-6 -15 6 10.3 3.07
-6 15 6 15.32 3.03
8 8 -6 8.65 1.85
-8 -8 6 9.39 3.07
8 8 -6 9.75 4.27
-8 -8 6 9.48 3.53
-8 8 6 8.57 3.62
-8 8 6 10.03 3.97
-5 -10 11 1.01 0.65
-5 10 11 3.28 1.36
-5 10 11 3.18 1.12
-5 -10 11 1.06 1.08
-7 -3 -5 26.82 4.14
7 3 5 30.99 5.85
7 -3 5 30.92 4.27
-7 3 -5 29.51 4.63
1 20 5 118.99 6.82
-1 20 -5 116.06 5.44
1 20 5 101.75 7.14
1 20 5 117.73 4.1
0 12 11 15.21 3.37
0 -12 11 10.24 3.33
0 12 11 12.41 4.96
0 -12 11 14.2 3.4
-6 16 4 32.29 4.4
-6 -16 4 37.58 3.6
6 16 -4 32.63 5.1
-6 16 4 34.69 1.58
3 3 11 2.27 0.78
3 3 11 4.47 1.64
3 -3 11 3.31 2.94
4 15 6 15.59 5.38
4 15 6 17.46 5.19
-4 15 -6 17.65 5.46
3 18 5 54.3 3.76
-3 18 -5 43.71 5.83
3 18 5 47.62 3.52
-3 10 12 84.24 3.93
-3 10 12 83.81 6.74
-3 -10 12 87.7 7.2
-3 10 12 79.85 4.96
5 7 8 6.34 3.27
5 7 8 4.71 2.77
5 -7 8 5.5 3.59
6 -8 6 39.22 3.23
6 8 6 37.73 3.3
6 8 6 33.79 4.48
-6 8 -6 34.85 6.62
-6 0 12 0.02 1.09
-6 0 12 0.87 1.05
2 20 4 2.51 1.82
2 20 4 3.64 1.65
-1 10 12 1.37 1.2
-1 10 12 0.15 0.85
-1 -10 12 0.41 0.68
-1 10 12 0.3 0.54
-1 -10 12 0.28 0.27
-1 22 0 3.38 2.63
1 22 0 4.95 3.1
-3 -6 13 2.65 1.83
-3 6 13 2.1 1.44
-3 6 13 2.49 1.05
-7 13 5 2.09 1.33
7 13 -5 1.84 1.28
-7 13 5 0.4 0.76
-7 -13 5 0.93 1.55
-7 -13 5 1.23 0.9
-4 9 12 160.92 6.07
-4 9 12 154.84 6.12
-4 -9 12 163.92 8.14
-4 9 12 163.47 6.42
-4 9 12 155.89 6.09
5 17 2 77.4 4.34
5 17 2 77.3 3.37
-5 17 -2 73.3 5.23
-1 22 1 15.37 3.06
1 22 -1 11.83 4.41
-6 -1 12 1.12 0.89
-6 1 12 0.96 1.09
-6 -1 12 0.84 1
-6 1 12 -0.02 0.89
0 -3 13 56.78 3.44
0 3 13 47.86 2.75
0 3 13 57.53 3.51
-2 -13 11 2.2 1.84
-2 13 11 1.23 0.85
-2 13 11 1.25 0.5
-2 13 11 3.24 1.54
-1 19 7 5.4 2.81
-1 -19 7 3.94 2.08
-1 19 7 7.08 3.87
1 19 -7 6.5 1.93
-1 19 7 7 2.39
-6 -10 10 17.82 2.96
-6 -10 10 20.92 5.33
-6 10 10 24.83 5.28
-6 10 10 20.28 3.23
0 -9 12 2.11 0.81
0 -9 12 1.07 0.82
0 9 12 2.88 1.28
0 9 12 2.43 0.83
-5 17 6 0.84 0.78
-5 -17 6 1.01 0.61
-5 17 6 1.44 0.64
-5 17 6 0.73 1.49
5 17 -6 0.41 0.77
5 14 5 45.26 3.31
-5 14 -5 38.63 2.27
5 14 5 41.73 6.72
-2 15 10 2.81 1.29
-2 15 10 3.11 1.71
-2 -15 10 1.83 0.65
-2 15 10 2.09 0.98
5 18 0 81.95 3.55
5 18 0 80.42 3.89
-5 18 0 74.18 5.41
2 0 12 56.29 2.65
2 0 12 53.13 2.89
7 12 1 28.13 2.6
7 12 1 25.73 3.4
-7 12 -1 25.87 3.54
-8 -9 5 53.33 4.7
-8 -9 5 49.06 3.64
-8 9 5 53.97 6.43
8 9 -5 44.81 2.19
-8 9 5 54.98 3.72
8 9 -5 50.1 2.88
-5 7 12 27.12 5.32
-5 -7 12 26.1 3.48
-5 7 12 34.94 6
-5 -7 12 29.03 5.93
-5 18 4 3.41 1.78
5 18 -4 2.37 1.08
-5 -18 4 2.54 1.42
4 3 10 4.43 1.95
4 -3 10 4.84 3.28
4 3 10 6.79 2.15
-8 -7 7 0.49 0.53
8 7 -7 1.7 1.18
-8 7 7 0.08 0.65
-8 7 7 2.38 1.42
-7 6 10 24.34 3.76
-7 -6 10 20.64 4.17
-7 -6 10 27.19 3.54
-7 6 10 20.65 5.54
3 17 6 34.41 4.39
3 17 6 40.24 2.89
6 4 7 11.02 3.75
6 -4 7 9.55 3.13
2 -1 12 29.52 5.27
2 1 12 29.74 7.22
2 1 12 22.41 3.58
3 -14 8 46.13 5.77
3 14 8 62.36 4.16
3 14 8 53 7.66
-8 5 8 -0.26 1.01
-8 5 8 1.82 1.09
8 5 -8 0.33 0.47
-8 -5 8 1.06 1.56
-8 -5 8 0.35 0.68
-5 -14 9 54.54 4.32
-5 14 9 57.41 2.69
-5 14 9 57.29 3.65
-5 14 9 58.7 5.31
-7 11 -2 149.04 6.78
7 11 2 147.21 7.02
7 11 2 144.7 6.11
1 -7 12 3.75 1.52
1 7 12 5.36 3.56
1 7 12 3.21 1.58
8 4 2 79.28 4.33
-8 4 -2 76.11 3.94
-8 -4 -2 84.13 4.5
8 -4 2 72.83 5.57
3 19 4 27.05 5.23
-3 19 -4 28.47 1.86
3 19 4 22.43 7.18
-6 -2 12 26.04 3.15
-6 2 12 22.75 4.74
-6 -2 12 18.47 3.5
-6 2 12 24.93 4.99
-1 15 10 22.15 6.09
-1 15 10 18.7 2.97
-1 15 10 15.92 3.56
-1 -15 10 13.17 4.08
8 8 0 4.67 2.06
-8 8 0 2.75 1.15
-8 -8 0 2.69 0.88
8 8 0 4.28 1.95
-4 -19 5 45.21 1.8
4 19 -5 41.69 6.14
-4 19 5 44.82 3.95
-4 19 5 38.24 5.25
2 14 9 7.9 3.36
2 -14 9 11.93 3.84
2 14 9 8.81 3
3 9 10 0.83 1.21
3 -9 10 1.95 1.7
3 9 10 1.84 1.04
-6 -12 9 32.26 5.11
-6 12 9 27.32 2.85
-6 -12 9 31.78 1.65
6 12 -9 28.21 1.6
-6 12 9 31.5 3.47
-1 18 8 2.21 0.9
1 18 -8 0.65 0.9
-1 18 8 2.04 1.03
-1 18 8 1.16 0.85
-1 18 8 1.7 1.43
-1 -18 8 1.98 1.32
0 22 -2 0.35 1.17
0 22 2 1.86 2.5
2 21 -4 48.5 7.17
-2 21 4 53.01 3.38
-2 21 4 47.63 2.41
-1 -6 13 21.24 5.29
-1 6 13 12.04 3.27
-1 -6 13 12.9 3.03
-1 6 13 13.46 6.41
-1 6 13 16.86 5.53
1 22 1 65.22 4.75
-1 22 -1 74.82 9.5
-1 20 6 6.02 2.4
-1 20 6 6.72 2.45
1 20 -6 3.77 1.98
-1 20 6 2.66 3.23
-2 -19 7 2.24 1.09
-2 19 7 2.49 2.13
-2 19 7 3.11 1.22
2 19 -7 2.32 1.04
7 4 5 10.36 3.83
-7 4 -5 16.26 3.8
7 -4 5 11.92 3.78
-1 -13 11 38.3 4.3
-1 13 11 36.04 4.47
-1 13 11 33.62 4.55
-1 13 11 29.81 4.91
2 2 12 33.19 2.92
2 -2 12 26.33 6.71
2 2 12 24.29 4.07
2 -2 12 25.42 4.38
-8 9 1 60.7 3.2
8 9 -1 66.89 4.29
-8 -9 1 61.6 3.39
8 9 -1 63.13 3.18
-8 -9 1 67.81 4.83
1 17 8 6.84 3.86
1 -17 8 5.6 2.47
1 17 8 8.51 3.5
3 -4 11 16.73 6.14
3 4 11 16.96 3.33
3 4 11 15.19 5.54
3 -12 9 12.07 2.17
3 12 9 11.21 4.8
3 12 9 12.42 4.29
-2 -18 8 -0.03 0.44
-2 18 8 0.67 0.32
2 18 -8 0.13 0.58
-2 18 8 0.49 0.61
-2 18 8 1.1 1.39
-4 5 13 31.16 4.95
-4 5 13 34.62 7.02
-4 -5 13 35.71 5.99
-4 12 11 14.34 4.42
-4 12 11 14.17 2.96
-4 -12 11 11.86 3.92
-4 12 11 8.92 2.88
1 22 -2 2.72 2.77
-1 22 2 1.79 1.8
-3 21 1 82.11 3.26
-3 21 1 80.02 5.34
3 21 -1 87.09 5.5
-3 20 5 1.77 0.91
3 20 -5 0.45 0.8
-3 20 5 0.51 1.07
1 11 11 10.42 3.7
1 -11 11 8.3 4.02
1 11 11 9.95 3.45
-4 19 -2 2.28 1.2
4 19 2 1.78 1.92
4 19 2 2.46 1.53
6 16 0 1.78 1.98
6 16 0 1.59 1.45
-6 16 0 1.31 1.17
0 -4 13 7.98 2.93
0 4 13 11.05 3.77
0 4 13 6.39 2.02
-4 14 10 13.76 2.61
-4 14 10 14.51 6.26
-4 -14 10 8.69 2.64
-4 -14 10 13.09 4.51
-4 14 10 13.03 3.43
7 13 0 9.72 4.43
7 13 0 9.66 4.05
-7 13 0 10.26 4.02
-8 0 9 1 0.96
-8 0 9 0.56 0.84
-3 21 2 20.26 1.47
-3 21 2 24.13 5.11
3 21 -2 16.43 4.11
-7 9 9 0.16 0.91
-7 -9 9 0.56 0.4
7 9 -9 0.29 0.15
-7 9 9 0.48 1.12
-7 -9 9 0.52 0.47
-6 -3 12 2.8 1.79
-6 3 12 0.77 1.48
-6 3 12 3.11 1.82
-6 -3 12 4.39 1.63
-2 -7 13 31.24 7.17
-2 7 13 27.16 5.83
-2 -7 13 31.86 2.21
-2 7 13 28.16 1.92
-2 7 13 37.21 4.7
4 -4 10 7.69 3.92
4 4 10 5.85 2.89
4 4 10 6.75 2.29
-8 -1 9 40 6.56
-8 1 9 43.87 6.88
-8 1 9 45.39 6.12
-8 -1 9 46.91 5.97
-3 13 11 23.99 6.48
-3 13 11 22.21 3.26
-3 13 11 26.53 3.45
-3 -13 11 21.14 5.27
-8 -7 -1 50.06 2.55
-8 7 -1 50.4 2.74
8 7 1 45.79 3.29
0 -19 7 0.47 0.51
0 19 7 0.97 1.07
0 19 7 1.55 1.85
-4 20 2 161.13 8.91
-4 20 2 161.83 7.15
4 20 -2 164.37 8.18
-7 0 11 21.14 3.37
-7 0 11 17.63 2.84
5 0 9 78.15 4.91
2 3 12 1.1 0.9
2 -3 12 0.03 0.62
2 3 12 1.13 1.43
4 9 9 69.4 4.15
4 -9 9 70.87 4.12
4 9 9 59.8 3.08
4 20 -1 4.37 2.14
4 20 -1 5.04 3.02
-4 20 1 6.01 2.11
-4 20 1 7.52 3.93
-3 21 0 -0.71 1.2
3 21 0 0.26 0.57
-3 21 0 0.12 0.45
3 21 0 0.37 1.18
2 12 10 19.4 5.65
2 12 10 18.63 7.43
2 -12 10 16.96 4.61
-6 16 5 5.16 2.75
-6 -16 5 4.42 1.9
-6 16 5 5.54 2.06
2 16 8 28.95 4.11
2 16 8 25.5 3.71
-7 -1 11 0.53 0.65
-7 -1 11 0.95 0.77
-7 1 11 1.21 1.04
-7 1 11 0.6 1.54
-8 -10 3 16.55 1.97
8 10 -3 13.01 5.68
8 10 -3 14.84 1.56
-8 -10 3 15.62 4.23
-8 10 3 16.16 2.91
-8 10 3 20.32 3.51
6 -5 7 2.43 0.89
6 5 7 2.26 1.22
6 5 7 3.12 2.6
5 -1 9 50.97 4.72
5 1 9 56.89 4.81
-6 8 11 9.87 1.84
-6 -8 11 8.27 3.64
-6 8 11 11.12 3.21
-6 -8 11 6.81 2.94
-1 21 -4 97.81 5.25
1 21 4 102.1 5.34
1 21 4 101.18 6.85
-6 11 -5 -0.57 1.05
6 11 5 0.26 1.13
-2 20 6 47.84 5.06
2 20 -6 44.5 5.37
-2 20 6 42.92 1.99
7 8 4 19.34 4.74
7 8 4 17.21 4.51
-7 8 -4 23.44 3.91
-7 12 7 103.23 3.99
-7 -12 7 100.89 9.02
-7 -12 7 105.6 4.5
7 12 -7 110.6 4.19
-7 12 7 114.46 5.22
0 20 -6 4.88 1.85
0 20 6 2.67 1.56
0 20 6 4.74 2.49
0 20 6 4.42 1.72
7 10 3 1.36 1.26
7 10 3 0.91 0.71
-7 10 -3 0.48 0.98
-8 2 9 18.6 4.73
-8 -2 9 16.52 4.85
-8 2 9 21.22 4.67
-8 -2 9 22.86 3.27
2 9 11 11.29 4.65
2 9 11 10.3 4.58
2 -9 11 7.18 3.95
-3 -15 10 38.01 3.25
-3 15 10 36.82 2.25
-3 15 10 42.97 5.76
-3 15 10 41.2 2.85
-3 15 10 33.83 4.36
-8 5 -2 50.37 5.88
-8 -5 -2 41.32 2.22
8 5 2 44.61 4.56
-5 0 13 8.59 3.99
-5 0 13 10.37 1.65
-3 7 13 2.8 2.62
-3 -7 13 4.4 2.01
-3 7 13 4.11 2.47
-7 14 3 21.4 2.05
7 14 -3 15.13 6.33
7 14 -3 19.69 1.73
-7 14 3 18.76 2.46
-7 -14 3 19.46 2.72
-8 10 4 58.04 3.6
-8 10 4 53.56 6.17
-8 -10 4 51.52 6.95
8 10 -4 55.85 3.09
-8 -10 4 54.03 3.67
8 10 -4 47.61 1.93
3 16 7 2.24 1.78
3 16 7 1.33 1.77
-8 6 8 118.79 5.43
-8 -6 8 118.84 6.58
-8 6 8 121.35 5.08
8 6 -8 114.43 4.8
-8 -6 8 116.14 5.8
-6 14 -3 20.6 2.73
6 14 3 24.83 2.41
6 14 3 19 4.96
-5 1 13 16.2 5.3
-5 -1 13 14.1 5.37
-5 -1 13 16.53 4
-5 1 13 21.49 5.13
-2 11 12 7.63 3.07
-2 11 12 8.72 1.96
-2 -11 12 5.78 3.41
-2 11 12 4.15 1.67
-7 -2 11 8.48 2.26
-7 2 11 8.19 2.51
-7 -2 11 5.4 2.02
-7 2 11 3.73 2.69
7 -5 5 20.47 5.8
-7 5 -5 20.43 4.36
7 5 5 18.85 6.24
5 2 9 0.99 0.77
5 8 8 45.05 4.59
5 8 8 44.21 4.13
5 -8 8 46.69 6.02
7 14 -2 1.43 0.94
7 14 -2 0.36 0.39
-7 14 2 1.28 1.27
-7 -14 2 0.76 0.53
3 5 11 4.09 1.49
3 -5 11 6.1 3.01
3 5 11 2.69 2.35
6 15 2 61.76 4.6
6 15 2 53.46 2.81
-6 15 -2 55.05 2.93
-8 -9 6 80.92 3.81
-8 9 6 90.97 4.76
-8 -9 6 82.3 5.09
-8 9 6 88.06 4.92
8 9 -6 86.98 4.02
-7 -7 10 56.24 2.9
-7 -7 10 56.69 4.96
-7 7 10 60.6 3.79
-7 7 10 58.09 4.74
-8 10 2 11.92 4.69
-8 -10 2 13.65 2.72
-8 -10 2 10.2 4
8 10 -2 7.98 3.32
8 10 -2 9.48 5.89
-4 -20 3 8.8 1.76
-4 20 3 10.55 4.37
-4 20 3 15.8 5.8
4 20 -3 10.36 3.6
5 18 1 16.32 6.47
5 18 1 11.53 6.41
-5 18 -1 15.03 5.18
2 17 -9 72.07 4.73
-2 17 9 90.24 5.59
-2 17 9 74.24 4.03
-2 17 9 87.26 6.18
-2 -17 9 85.75 3.59
-2 17 9 80.98 6.67
-7 13 6 30.23 3.71
-7 13 6 29.03 4.42
7 13 -6 27.11 6.01
-7 -13 6 31.05 1.44
-7 -13 6 33.45 5.37
-6 4 12 24.62 3.39
-6 -4 12 29.92 5.63
-6 4 12 21.45 7.32
-6 -4 12 22.23 2.99
3 20 3 3.33 2.37
3 20 3 2.93 1.58
-3 20 -3 2.4 1.03
-1 17 9 44.82 5.6
-1 -17 9 53.43 4.61
-1 17 9 54.42 2.78
-1 17 9 58.51 3.92
-1 22 -2 23.06 8.26
1 22 2 20.32 4.32
0 18 8 23.13 5.43
0 18 8 17.87 2.42
0 -18 8 15.81 4.43
0 18 8 16.95 3.99
7 11 -8 0.17 0.3
-7 11 8 0.29 0.89
-7 -11 8 0.48 0.98
-7 11 8 0.3 0.45
-7 -11 8 0.69 0.63
4 -12 8 1.24 1.82
4 12 8 2.86 2.77
4 12 8 3.64 1.98
-3 21 3 3.03 1.16
-3 21 3 4.52 1.82
3 21 -3 3.7 1.77
4 14 7 82.19 4.88
4 14 7 86.52 5.15
-4 17 8 10.12 2.83
-4 -17 8 8.55 2.72
-4 17 8 10.75 1.44
4 17 -8 5.65 2.04
-4 17 8 8.94 4.8
-5 18 5 50.16 4.15
-5 18 5 48.96 2.92
5 18 -5 50.38 4.66
-5 -18 5 49.47 2.98
2 21 3 11.97 4.55
-2 21 -3 10.47 3.65
-2 21 -3 8.85 3.08
2 21 3 9.19 4.8
6 9 6 6.69 2.62
6 9 6 6.77 2.86
-6 9 -6 5.96 2.86
6 -9 6 4.73 3.53
0 -5 13 151.51 6.4
0 5 13 158.37 6.45
0 5 13 155.82 5.09
-5 8 12 3.16 1.5
-5 8 12 2.94 2.23
-5 -8 12 2.99 1.26
4 20 0 29.97 2.09
4 20 0 35 3.08
-4 20 0 27.53 1.98
-5 -2 13 0.74 0.86
-5 -2 13 0.63 0.62
-5 2 13 0.48 1.09
-5 2 13 0.17 1.07
-1 21 5 0.9 0.97
1 21 -5 0.46 1.04
-8 -8 7 46.88 3.66
-8 -8 7 44.16 2.45
-8 8 7 44.66 5.86
8 8 -7 44.63 2.53
-8 8 7 45.88 4.08
-5 13 -6 4.19 1.59
5 13 6 4.07 2.73
5 13 6 3.46 1.88
-8 -3 9 0.49 0.48
-8 -3 9 0.86 0.6
-8 3 9 0.76 0.75
-8 3 9 0.92 0.67
-7 14 4 39.68 3.67
-7 14 4 44.81 4.48
-7 -14 4 49.26 5.45
7 14 -4 42.58 2.93
-4 18 7 109.88 4.91
4 18 -7 112.88 4.3
-4 -18 7 99.97 4.77
-4 18 7 109.89 5.61
5 11 7 1.62 1.25
5 11 7 1.57 1.25
5 -11 7 1.07 0.76
2 -4 12 1.63 0.84
2 4 12 2.49 1.27
2 4 12 0.79 0.61
2 -4 12 2.67 1.4
-4 6 13 0 1.33
-4 6 13 -0.31 0.69
4 5 10 19.82 6.39
4 5 10 22.02 2.79
4 -5 10 18.54 6.17
-1 -7 13 5.02 2.91
-1 7 13 8.57 3.07
-1 -7 13 4.56 1.43
-1 7 13 3.48 1.93
-1 7 13 3.03 1.36
1 8 12 41.97 5.9
1 8 12 42.23 6.8
1 -8 12 33.16 4.57
-2 22 1 6.99 3.76
2 22 -1 8.48 3.61
-2 22 1 5.97 1.64
-9 0 4 0.5 0.74
-9 0 4 0.5 0.65
-5 -13 10 0.28 0.82
-5 13 10 0.75 1.01
-5 -13 10 0.56 0.42
-5 13 10 1.59 1.06
-1 22 3 36.01 2.68
1 22 -3 23.04 2.28
-9 0 3 16.93 3.64
-9 0 3 16.75 5.7
0 22 3 22.26 7.35
0 22 -3 20.81 5.44
-7 3 11 122.54 9.15
-7 -3 11 145.9 5.63
-7 3 11 127.92 6.64
-7 -3 11 124.45 7.6
-4 10 12 74.5 4.21
-4 10 12 74.05 6.8
-4 -10 12 77.36 6.82
-4 10 12 74.61 3.98
-4 10 12 78.45 6.08
-5 -11 11 93.51 4.43
-5 11 11 108.73 5.41
-5 -11 11 110.53 5.22
-5 11 11 102.81 6.42
-9 1 4 3.43 1.37
-9 1 4 3.38 1.95
-9 -1 4 3.25 1.79
-9 -1 4 3.77 2.24
5 3 9 106.57 8.75
5 3 9 102.45 6.75
0 -15 10 18.57 5.02
0 15 10 21.83 4.16
0 15 10 19.01 6.67
0 -15 10 15.95 2.87
-8 0 -3 0.84 0.32
8 0 3 1.82 1.86
-9 -1 3 37.22 2.73
-9 1 3 31.05 3.96
9 1 -3 24.31 6.68
-9 -1 3 29.74 3.86
-9 1 3 26.5 5.26
1 14 10 1.93 1.2
1 -14 10 3.32 1.57
1 -14 10 1.08 0.73
1 14 10 2.26 1.1
2 22 0 94.15 5.45
-2 22 0 85.65 6.55
0 -10 12 62.99 5.75
0 10 12 59.55 3.98
0 -10 12 53.56 2.58
0 10 12 53.72 7
3 21 1 71.59 6.07
-3 21 -1 67.77 4.75
-3 21 -1 66.6 3.25
3 21 1 69.94 4.35
6 13 4 14.12 2.38
6 13 4 8.92 3.16
-6 13 -4 7.36 3.3
-3 11 12 56.35 3.89
-3 -11 12 69.19 5.79
-3 11 12 68.54 5.28
-3 11 12 60.38 3.32
-8 10 5 25.18 2.9
-8 -10 5 25.73 2.49
-8 10 5 23.2 3.9
-8 -10 5 25.58 5.36
8 10 -5 26.9 3.35
-8 1 -3 15.96 5.22
-8 -1 -3 17.54 5.96
8 -1 3 11.34 5.42
8 1 3 12.9 7.01
-8 9 0 9.64 3.9
8 9 0 11.06 3.87
8 9 0 11.33 4.92
-8 -9 0 10.62 3.66
-1 11 12 68.32 5.75
-1 -11 12 75.1 3.77
-1 11 12 85.12 4.48
-1 11 12 70.24 3.51
-6 15 7 23.75 2.67
-6 15 7 24.02 2.59
-6 -15 7 26.01 3.32
6 15 -7 21.04 3.18
0 21 5 197.9 9.23
0 21 5 202.03 8.66
0 21 5 199.62 6.12
0 21 -5 192.06 7.2
-6 14 8 0.47 0.73
-6 -14 8 1.86 1.19
6 14 -8 -0.09 0.35
-6 14 8 0.47 0.75
-5 -3 13 15.17 4.64
-5 3 13 15.26 4.79
-5 -3 13 10.64 1.75
-5 3 13 9.36 5.19
7 14 -1 26.63 2.55
7 14 -1 29.01 2.22
-7 14 1 27.75 3.94
3 18 -8 12.73 2.63
-3 18 8 10.58 3.69
-3 -18 8 17.69 2.28
-3 18 8 18.54 2.06
-6 11 10 2.06 1.33
-6 -11 10 2.38 1.09
-6 -11 10 0.68 1.02
-6 11 10 3.6 1.81
6 -6 7 28.03 4.31
6 6 7 21.47 6.52
6 6 7 22.49 3.87
2 22 -2 28.83 6.74
-2 22 2 28.64 2.26
-2 22 2 28.05 8.66
4 17 5 1.18 1.13
4 17 5 0.77 0.64
-4 17 -5 0.29 0.93
-9 -2 4 42.12 5.59
-9 2 4 45.2 6.11
-9 2 4 41.52 5.66
9 2 -4 43.39 4.51
-9 -2 4 42.45 2.69
-4 16 9 0.78 0.39
-4 -16 9 0.69 0.7
-4 16 9 0.74 1.61
-4 16 9 0.39 0.48
-4 18 -4 23.11 3.87
4 18 4 14.69 4.6
4 18 4 17.68 6.36
-9 -2 3 0.69 0.98
-9 2 3 0.99 0.85
-9 -2 3 0.14 1.19
9 2 -3 1.72 1.41
-9 2 3 0.72 0.86
3 -10 10 0.96 1.13
3 10 10 1.91 1.49
3 10 10 1.47 1.03
-3 19 7 0.61 0.77
3 19 -7 0.81 0.78
-3 19 7 0.56 0.58
-8 6 -2 0.22 1.28
8 6 2 0.08 0.85
-8 -6 -2 0.72 0.98
1 16 9 30.22 5.14
1 16 9 25.95 6.07
1 -16 9 17.06 4.39
1 -16 9 21.96 3.2
0 -13 11 1.75 0.69
0 13 11 3.14 1.41
0 13 11 5.02 1.48
0 -13 11 2.18 1.76
-2 8 13 0.24 0.43
-2 8 13 -0.17 0.98
-2 -8 13 0.64 1.1
-2 8 13 0.04 0.71
-9 0 5 3.87 1.97
-9 0 5 5.03 3.36
-8 -2 -3 8.06 2.51
8 2 3 6.54 2.64
8 -2 3 5.13 2.45
-8 2 -3 4.94 1.81
6 16 1 86.79 3.8
6 16 1 88.16 5.98
-6 16 -1 82.09 3.96
-8 4 9 0.7 0.52
-8 -4 9 0.24 0.83
-8 -4 9 0.6 0.58
-8 4 9 1.32 1.6
5 16 4 23.15 2.35
5 16 4 23.25 5.05
-5 16 -4 18.04 4.21
8 10 -1 14.26 5.75
-8 -10 1 17.31 2.08
8 10 -1 15.04 3.16
-8 10 1 18.01 3.63
-8 -10 1 19.56 3.28
-6 -5 12 2.07 1.05
-6 5 12 -0.88 0.97
-6 5 12 1.14 1.36
-6 -5 12 0.87 0.56
-6 17 2 58.8 3.94
6 17 -2 60.66 2.53
6 17 -2 56.74 3.53
-6 -17 2 59.65 3.54
-8 8 -1 13.19 3.4
8 8 1 9.29 3.37
-8 -8 -1 10.3 3.83
8 8 1 10.36 3.78
-9 -1 5 0.96 0.97
-9 -1 5 0.64 0.75
-9 1 5 1.28 1.41
9 0 -2 0.89 0.74
-9 0 2 0.4 0.73
-9 0 2 0.24 0.9
-6 -17 3 8.57 2.5
6 17 -3 3.18 2.37
-6 17 3 6.2 2.21
7 -6 5 1.59 1.99
7 6 5 3.46 1.58
-7 6 -5 1.27 1.38
7 6 5 2.14 1.79
-5 16 8 1.6 0.6
-5 16 8 1.08 1.42
-5 -16 8 0.27 0.64
5 16 -8 0.52 0.51
-5 16 8 0.6 0.66
2 21 -5 11.23 3.55
-2 21 5 14.67 2.54
-2 21 5 14.22 6.33
3 -6 11 9.27 4.09
3 6 11 9.38 4.51
3 6 11 12.42 3.03
-9 1 2 101.7 10.35
-9 1 2 99.31 4.47
-9 -1 2 98.82 4.68
-9 -1 2 108.8 6.77
9 1 -2 105.63 5.88
7 12 2 5.58 1.98
7 12 2 7.92 1.43
-7 12 -2 6.68 3.43
5 17 3 7.12 3.15
5 17 3 5.33 2.5
-5 17 -3 8.17 2.75
-7 4 11 47.44 5.26
-7 -4 11 38.86 2.68
-7 4 11 45.13 3.72
-7 -4 11 47.17 3.51
-4 20 4 15.03 2.49
-4 -20 4 16.38 2.27
4 20 -4 13.8 5.61
-4 20 4 11.96 3.41
-4 -19 6 26.84 3.14
-4 19 6 33.58 5.76
-4 19 6 32.53 2.27
4 19 -6 28.28 5.3
5 4 9 104.98 6.96
5 -4 9 112.45 5.55
5 4 9 114.99 5.22
2 5 12 59.15 3.51
2 -5 12 49.4 3.71
2 5 12 47.88 3.58
-7 13 -1 0.59 1.28
7 13 1 0.67 1.15
7 13 1 0.46 0.5
-8 7 8 0.76 1
-8 -7 8 1.61 0.79
8 7 -8 1.68 0.81
-8 7 8 0.31 1
-8 -7 8 0.22 0.51
2 19 6 30.66 9.46
2 19 6 26.41 7.59
7 14 -5 27.04 4.07
-7 14 5 25.12 3.74
-7 -14 5 25.82 3.52
-7 14 5 28.71 2.34
-5 17 7 46.5 3.56
-5 17 7 43.72 1.9
-5 17 7 46.6 4.43
5 17 -7 45.34 4.99
-5 -17 7 40.01 4.43
-5 -19 2 44 2.78
5 19 -2 45.63 3.45
5 19 -2 43.94 8.14
-5 19 2 47.28 2.7
2 22 1 22.32 5.1
-2 22 -1 24.59 5.67
-9 -3 4 0.45 0.68
-9 3 4 0.06 0.86
9 3 -4 1.56 1.36
-9 -3 4 0.66 0.95
-9 3 4 0.47 0.75
-7 10 9 46.61 5.5
-7 -10 9 48 2.71
-7 10 9 49.46 4.07
7 10 -9 43.66 3.11
-7 -10 9 49.22 4.28
0 6 13 11.62 2.39
0 6 13 16.64 4.61
0 -6 13 13.78 3.26
0 -6 13 10.15 2.73
-2 14 11 3.83 1.59
-2 -14 11 3.68 1.74
-2 14 11 2.55 1.16
-2 14 11 4.18 1.44
-9 2 5 39.07 4.98
-9 2 5 49.22 3.86
-9 -2 5 38.23 5.22
-9 -2 5 38.74 2.64
1 0 13 7.93 2.91
-9 -3 3 19.07 2.06
-9 3 3 20.46 5.35
-9 3 3 17.99 5.68
9 3 -3 15.16 4.96
-9 -3 3 19.29 2.32
-3 8 13 -0.05 1.08
-3 -8 13 0.7 1.32
-3 8 13 0.78 0.58
-3 8 13 0.6 0.92
-6 9 11 3.8 2.99
-6 -9 11 3.41 1.45
-6 9 11 3.19 1.7
-6 -9 11 2.38 1.66
4 20 1 8.42 2.07
4 20 1 7.71 4.04
-4 20 -1 7.78 2.77
-6 16 6 4.83 1.94
-6 16 6 6.05 2.05
-6 -16 6 5.27 1.89
6 16 -6 3.98 2.42
1 1 13 0.8 1
1 -1 13 1.16 0.79
1 1 13 2.07 0.91
8 3 3 0.97 1.87
-8 -3 -3 3.89 1.96
-8 3 -3 4.09 1.48
8 -3 3 3.8 1.96
4 6 10 3.83 2.54
4 6 10 3.21 1.33
4 -6 10 4.06 2.02
-5 4 13 3.35 1.19
-5 -4 13 1.86 1.37
-5 -4 13 0.44 1.25
-5 4 13 0.39 1.53
-3 17 9 8.65 2.22
-3 -17 9 3.75 2.37
-3 17 9 8.82 4.48
-3 17 9 10.49 3.81
3 17 -9 5.51 2.24
7 9 4 19.39 5.23
7 9 4 14.76 4.18
-7 9 -4 23.28 6.08
-9 -2 2 7.74 3.4
-9 2 2 5.31 3.69
9 2 -2 8.11 4.02
-9 -2 2 6.03 2.1
-9 2 2 9.15 3.6
-3 21 4 57.64 3.73
3 21 -4 53.91 5.9
-3 21 4 57.92 2.62
0 -17 9 36.26 3.41
0 17 9 26.3 4.51
0 17 9 32.44 3.52
0 -17 9 27.23 2.98
0 17 9 31.73 9.18
-6 -13 9 13.69 2.37
-6 -13 9 14.18 3.09
-6 13 9 14.64 2.22
-6 13 9 13.01 4.88
4 10 9 1.78 1.39
4 10 9 1.84 1.03
4 -10 9 1.34 1.06
6 17 -1 22.55 3.53
6 17 -1 26.91 4.88
-6 17 1 26.97 2.65
4 16 6 0.31 0.74
-4 16 -6 0.36 0.61
4 16 6 1 0.98
5 19 -1 47.91 3.9
-5 19 1 46.55 3
5 19 -1 48.12 2.36
-7 8 10 18.58 3.8
-7 8 10 20.95 6.93
-7 -8 10 25.56 4.67
-7 -8 10 21.57 4.71
2 20 5 7.44 3.15
2 20 5 6.08 3.21
-5 -19 3 23.98 1.69
-5 19 3 21.01 2.81
5 19 -3 19.07 5.9
1 12 11 0.6 0.56
1 -12 11 1.37 0.55
-5 15 -5 3.57 1.73
5 15 5 3.63 2.45
5 15 5 3.32 1.29
4 19 3 0.38 0.43
4 19 3 0.14 0.87
-4 19 -3 1.84 1.13
-4 7 13 2.45 1.66
-4 7 13 1.76 1.81
-4 -7 13 1.53 1.14
3 13 9 98.29 7
3 -13 9 94.03 4.58
3 13 9 98.33 6.39
2 10 11 0.27 0.53
2 -10 11 0.94 1.25
2 10 11 1.46 0.94
5 9 8 0.72 1.13
5 -9 8 -0.81 1
5 9 8 1.61 1.56
2 -18 7 3.83 1.75
2 18 7 5.97 2.66
2 18 7 6.9 4.12
3 15 8 16.36 7.08
3 15 8 15.57 5.71
-4 -13 11 4.14 2.36
-4 13 11 4.81 1.52
-4 13 11 3.33 2.33
-4 13 11 3.42 2.4
-4 -13 11 2.71 1.24
3 20 -6 13.76 6.16
-3 20 6 20.16 3.11
-3 20 6 20.56 1.68
-3 -20 6 18.54 3.29
-6 17 4 0.33 0.67
-6 17 4 0.56 0.85
6 17 -4 0.72 0.85
-6 -17 4 0.55 0.84
1 2 13 1.37 1.75
1 -2 13 0.52 0.59
1 2 13 0.28 0.35
-5 -15 9 26.41 3.32
-5 15 9 28.21 2.4
-5 15 9 21.94 2.23
-5 15 9 26.23 3.73
-2 22 3 36.31 1.78
2 22 -3 39.62 6.38
-2 22 3 30.22 4.46
-8 11 3 28.31 2.84
-8 -11 3 24.59 3.62
-8 -11 3 28.63 1.82
8 11 -3 23.46 1.44
8 11 -3 23.47 6.5
-8 11 3 23.93 4.88
1 20 6 8.26 4.07
1 20 6 8.2 3.49
-2 0 14 280.72 7.23
-2 0 14 256.49 8.02
-2 -16 10 10.68 4.04
-2 16 10 12.45 4.81
-2 16 10 11.87 3.09
-2 16 10 15.3 4.42
1 22 3 74.79 5.31
-1 22 -3 80.02 4.58
1 22 3 97.56 6.15
-1 14 11 37.93 5.31
-1 14 11 33.01 4.99
-1 -14 11 38.79 4.07
-1 14 11 34.78 5.73
1 -19 7 2.81 1.23
1 19 7 1.67 2.53
1 19 7 3.8 2.2
-9 3 5 7.02 2.35
-9 -3 5 8.4 3.01
9 3 -5 5.35 1.82
-9 3 5 7.65 2.38
-9 -3 5 8.58 4.52
-1 -8 13 5.97 2.08
-1 -8 13 6.01 2.04
-1 8 13 6.67 2.7
-1 8 13 6.5 2.26
-1 8 13 6.97 2.86
2 -15 9 60.6 3.65
2 15 9 62.36 4.52
2 15 9 60.83 4.88
-7 11 -3 41.6 3.22
7 11 3 40.71 2.61
7 11 3 45.85 3.61
-8 -5 9 78.49 6.56
-8 5 9 85.56 6.31
-8 5 9 80.4 3.79
-8 -5 9 77.84 5.08
-2 -1 14 13.88 4.36
-2 1 14 9.85 3.5
-2 -1 14 8.84 3.71
-2 1 14 13.9 3.65
-5 9 12 80.46 5.69
-5 -9 12 82.26 6.06
-5 -9 12 77.11 4.18
-5 9 12 80.35 8.97
-9 -3 2 1.08 0.48
-9 -3 2 2.01 1.71
9 3 -2 2.21 0.99
-9 3 2 1.35 1.9
-9 3 2 2.14 1.69
-8 -10 6 -0.03 0.8
8 10 -6 0.81 0.86
-8 10 6 0.77 1.16
-8 10 6 0.84 1.46
-8 -10 6 0.24 0.43
-8 -9 7 7.43 2.33
8 9 -7 6.92 2.66
-8 9 7 8.44 3.29
-8 -9 7 8.95 3.18
-8 9 7 8.81 3.38
-8 11 4 2.08 0.87
8 11 -4 1.91 0.87
-8 -11 4 1.26 0.72
8 11 -4 3.17 1.71
-8 11 4 2.52 1.15
-8 -11 4 2.98 1.38
-3 0 14 0.69 1.29
-3 0 14 0.82 0.66
-9 4 4 0.56 0.57
-9 -4 4 1.42 0.62
9 4 -4 0.82 1.09
-9 4 4 0.2 1.31
-9 -4 4 1.83 1.62
6 12 5 35.81 2.76
6 12 5 29.74 4.88
-6 12 -5 33.01 5.32
-1 16 10 14.98 3.16
-1 16 10 14.36 3.23
-1 16 10 13.02 3.25
-1 -16 10 13.4 3.11
-9 4 3 2.07 1.11
-9 -4 3 0.55 0.94
9 4 -3 0.88 0.82
-9 4 3 0.99 1.58
-9 -4 3 1.74 0.77
-9 0 6 1.69 0.76
-9 0 6 0.48 0.65
7 14 0 1.79 2.3
7 14 0 0.13 0.81
-7 14 0 3.09 1.38
-7 -5 11 3.79 1.95
-7 5 11 7.47 3.53
-7 5 11 4.64 1.96
-7 -5 11 4.15 1.9
1 9 12 39.9 5.06
1 -9 12 35.08 5.42
1 9 12 51.88 4.33
-3 1 14 2.94 3.6
-3 -1 14 3.02 1.48
-3 -1 14 1.52 1.23
-3 1 14 2.14 0.77
6 7 7 3.41 2.41
6 7 7 5.93 2.77
6 -7 7 3.78 2.12
5 18 2 10.46 5.27
-5 18 -2 12.75 4.76
5 18 2 14.62 3.88
5 -5 9 54.39 8.38
5 5 9 53.14 6.5
5 5 9 59.76 4.25
6 10 6 7.87 2.69
6 -10 6 5.12 3.33
-6 10 -6 7.36 3.36
6 10 6 9.49 3.59
-6 6 12 14.12 5.57
-6 6 12 17.35 5.66
-6 -6 12 12.34 3.22
-6 -6 12 14.63 5.11
3 21 2 91.5 7.08
3 21 2 83.46 5.73
-3 21 -2 88.87 3.53
-8 4 -3 1.65 1.27
-8 -4 -3 1.84 0.7
8 4 3 1.65 1.37
8 -4 3 1.57 1.57
-9 -1 6 27.42 4.81
-9 1 6 25.5 3.84
-9 1 6 26.46 5.84
-9 -1 6 28.62 4.2
2 13 10 47.61 5.9
2 13 10 46.34 3.29
2 -13 10 49.58 4.08
3 19 5 30.24 2.84
3 19 5 28.17 7.2
-3 19 -5 28.14 1.74
8 11 -2 12.82 6.92
8 11 -2 15.05 3.01
-8 11 2 13.81 4.77
-8 -11 2 14.71 1.26
-8 -11 2 15.73 4.66
-5 18 6 77.5 4.37
-5 -18 6 74.87 3.73
-5 18 6 71.67 8.38
5 18 -6 74.96 3.38
-2 -2 14 37.49 2.85
-2 -2 14 37.98 6.48
-2 2 14 37.91 7.45
-2 2 14 33.99 4.43
8 7 2 41.15 6.69
-8 7 -2 44.16 3.11
-8 -7 -2 44.08 2.69
8 7 2 38.95 2.48
1 22 -4 0.35 0.86
-1 22 4 -0.14 0.83
-1 22 4 0.35 0.38
-3 14 11 10.97 2.84
-3 14 11 14.28 4.94
-3 14 11 14.72 6.22
-3 -14 11 9.75 3.78
-3 14 11 14.18 4.83
7 0 6 -0.11 0.99
9 0 -1 75.44 6.81
-9 0 1 85.65 4.73
1 3 13 10.69 6.23
1 -3 13 14.84 5.54
1 3 13 12.84 2.5
-4 15 10 1.27 0.95
-4 -15 10 1.51 1.08
-4 15 10 1.13 0.81
-4 15 10 0.05 1.32
-2 12 12 54.11 4.09
-2 12 12 60.84 4.1
-2 -12 12 61.79 5.21
-2 12 12 59.84 9.73
7 13 -7 24.25 2.56
-7 13 7 29.29 2.76
-7 -13 7 27 4.32
-7 13 7 29.55 2.81
3 18 6 4.52 3.33
3 18 6 6.37 1.39
2 6 12 1.36 0.96
2 6 12 0.94 1.4
2 -6 12 1.48 1.23
7 -1 6 3.72 2.14
-7 1 -6 0.9 1
7 1 6 1.3 1.52
-9 1 1 5.1 2.63
9 1 -1 6.65 2.48
-9 -1 1 7.76 2.91
-9 -1 1 8.12 2.63
9 -1 -1 8.1 3.07
-5 -5 13 73.06 5.02
-5 5 13 74.47 3.81
-5 5 13 70.96 5.31
-5 -5 13 70.47 6.26
0 23 0 0.12 0.87
-3 -2 14 5.44 1.98
-3 -2 14 5.67 2.82
-3 2 14 5.61 1.85
-3 2 14 6.74 2.16
5 19 0 0.25 0.52
5 19 0 0.98 1.49
-5 19 0 0.08 0.74
-7 7 -5 1 1.52
7 7 5 0.84 0.82
7 7 5 0.84 1.11
7 -7 5 0.03 1.32
5 19 -4 41.38 5.84
-5 19 4 35.01 2.07
-5 -19 4 38.06 3.8
-9 2 6 13.18 3.24
-9 -2 6 10.73 3.94
-9 2 6 9.2 3.8
-9 -2 6 9.59 3.23
0 22 4 22.67 2.98
0 22 -4 17.51 5.83
3 7 11 5.61 1.8
3 -7 11 4.53 1.47
3 7 11 5.09 2.49
-7 12 8 1.19 0.65
-7 -12 8 0.22 0.74
-7 12 8 0.6 0.62
-7 -12 8 0.38 0.61
7 12 -8 0.42 0.38
-1 21 -5 0.59 1.18
1 21 5 1.46 1.04
1 21 5 0.78 0.65
1 21 5 1.91 1.52
-9 -4 5 62.32 4.72
9 4 -5 57.73 3.91
-9 -4 5 61.7 3.37
-9 4 5 56.13 3.49
-9 4 5 61.63 4.36
-8 -10 0 16.82 4.17
-8 10 0 18.43 6.78
8 10 0 15.82 5.55
8 10 0 18.27 2.86
-1 20 7 18.52 5.11
-1 20 7 24.16 1.82
1 20 -7 19.68 3.46
-1 20 7 18.72 4.11
-4 11 12 33.43 3.91
-4 11 12 33.14 4.59
-4 11 12 34.33 4.96
-4 -11 12 33.69 6.08
6 17 0 55.3 5.67
-6 17 0 55.94 5.29
6 17 0 58.76 4.33
5 12 7 10.05 4.41
5 -12 7 8.44 3.37
5 12 7 10.95 2.71
-2 22 -2 7.95 3.27
2 22 2 6.12 2.3
2 22 2 6.89 2.76
0 7 13 22.03 3.46
0 -7 13 36.3 6.83
0 -7 13 25.54 3.14
0 7 13 31.03 2.9
7 2 6 0.24 1.27
-7 2 -6 0.8 0.74
7 -2 6 0.4 1.38
9 2 -1 0.71 0.93
-9 -2 1 0.98 0.54
-9 -2 1 1.1 0.86
-9 2 1 0.39 0.76
1 18 8 53.96 6.7
1 -18 8 56.03 3.5
1 18 8 63.7 4.64
-2 -9 13 49.38 7.36
-2 9 13 42.16 7.47
-2 9 13 42.14 5.82
-2 9 13 37.48 2.32
2 21 4 19.37 6.58
2 21 4 16.82 6.92
-9 4 2 -0.16 0.69
-9 -4 2 2.59 1.15
9 4 -2 2.39 1.47
-9 -4 2 3.87 1.42
-9 4 2 1.57 1.73
4 -13 8 4.19 1.73
4 13 8 3.62 1.19
4 13 8 4.84 1.85
0 23 1 1.34 1.31
0 23 -1 0.61 0.93
0 11 12 6.24 3.21
0 -11 12 8.2 3.28
0 11 12 6.97 3.24
0 -11 12 6.99 1.96
-2 3 14 -0.07 1.16
-2 -3 14 0.66 0.77
-2 3 14 0.63 0.56
-1 19 8 38.35 2.75
-1 19 8 38.29 5.28
-1 19 8 34.17 6.47
-1 -19 8 39.94 2.82
1 19 -8 35.88 3.5
-8 11 5 2.06 1.2
8 11 -5 1.67 1
-8 -11 5 0.52 0.41
-8 -11 5 1.89 0.99
-8 11 5 2.35 1.22
-8 8 8 3.95 1.66
-8 -8 8 2.29 1.69
8 8 -8 1.36 0.86
-8 8 8 2.17 1.4
-8 -8 8 2.47 1.34
8 9 1 5.34 4
-8 -9 -1 7.71 2.99
8 9 1 9.93 6.05
-8 9 -1 9.9 3.57
4 7 10 1.81 1.43
4 -7 10 4.68 1.68
4 7 10 4.84 2.8
-7 -15 3 8.07 2.76
7 15 -3 6.05 3.44
-7 15 3 9.28 3.84
-5 -12 11 1.11 1.31
-5 -12 11 0.13 0.44
-5 12 11 0.26 1.09
-5 12 11 0.62 0.81
3 20 4 7.66 3.15
-3 20 -4 3.54 1.19
3 20 4 5.32 2.64
-7 14 6 10.36 3.91
-7 -14 6 12.63 2.57
-7 14 6 9.39 3.54
7 14 -6 10.53 4.38
6 0 8 10.49 3.16
6 15 3 -0.12 0.71
-6 15 -3 -0.54 1.23
6 15 3 0.75 1.09
4 20 -5 152.66 5.64
-4 20 5 162 6.18
-4 20 5 141.46 9.78
-3 3 14 0.59 1.41
-3 -3 14 -0.05 1.43
-3 -3 14 1.09 0.6
-3 3 14 0.29 0.58
-3 16 10 0.26 1.06
-3 -16 10 1.03 0.6
-3 16 10 1.04 1.77
-3 16 10 1.85 1
-3 -12 12 29.15 5.62
-3 12 12 30.79 3.63
-3 12 12 25.55 2.88
-3 12 12 33.04 4.75
-9 5 4 59.51 3.43
-9 -5 4 54.69 2.83
9 5 -4 57.44 3.2
-9 -5 4 60.33 5.08
-9 5 4 53.51 4.99
-2 19 8 2.42 1.46
2 19 -8 1.76 0.81
-2 19 8 2.8 1.34
-2 -19 8 2.39 1.52
7 15 -2 1.27 1.27
-7 -15 2 1.22 1.18
-7 15 2 2.36 2.26
7 15 -2 0.99 0.5
6 1 8 5.14 2.65
6 -1 8 2.36 1.89
1 4 13 2.15 0.84
1 -4 13 1.45 1.16
1 4 13 2.41 0.95
-1 0 14 1.33 0.82
-9 5 3 48.4 6.54
-9 5 3 45.76 5.25
-9 -5 3 53.66 4.51
-9 -5 3 44.37 3.04
9 5 -3 38.56 6.13
-9 -3 6 35.3 8.03
-9 3 6 36.36 5.28
-9 -3 6 32.72 4.04
-9 3 6 38 6.76
-1 -12 12 28.1 8.09
-1 12 12 23.77 5.71
-1 12 12 20.55 3.63
-1 12 12 19.36 3.72
-6 -17 5 1.07 0.7
-6 17 5 1.58 1.74
6 17 -5 0.63 1.23
-6 17 5 0.95 0.58
2 17 8 13.09 2.51
2 17 8 11.23 3.68
-5 14 -6 1.02 1.38
5 14 6 0.34 1.1
5 14 6 0.91 0.87
3 11 10 0.8 1.36
3 11 10 0.7 0.84
3 -11 10 0.3 0.52
-8 6 9 0.59 0.84
-8 -6 9 0.77 0.56
-8 -6 9 0.98 0.52
8 6 -9 1.19 0.89
-8 6 9 -0.84 1.26
-2 20 7 0.87 0.88
2 20 -7 1.43 1.47
-2 20 7 1.96 1.59
-8 0 10 12.41 4.75
-8 0 10 17.02 3.99
-8 -5 -3 35.33 5.16
8 -5 3 40.83 3.59
-8 5 -3 41.54 7.29
8 5 3 37.71 4.58
-1 1 14 32.16 5.55
-1 1 14 37.19 7.97
-1 -1 14 35.36 2.41
-1 -1 14 33.94 5.87
-1 23 0 12.79 6.6
1 23 0 15.15 7.21
-3 -9 13 1 1.31
-3 9 13 1.28 1.05
-3 9 13 0.21 0.4
-3 9 13 2.23 1.65
4 15 7 56.89 6.01
4 15 7 59.83 4.64
-6 -12 10 7.18 3.12
-6 12 10 6.87 3.62
-6 12 10 7.6 3.15
-6 -12 10 10.07 3.67
-8 -1 10 0.44 1.08
-8 1 10 1.19 1.6
-8 -1 10 0.65 0.56
-8 1 10 0.67 0.49
-1 23 1 17.03 7.15
1 23 -1 23.26 6.44
8 11 -1 71.73 3.81
-8 11 1 69.1 5.12
-8 -11 1 75.32 3.81
8 11 -1 76 3.36
-7 3 -6 0.84 0.57
7 -3 6 1.24 0.65
7 3 6 1.4 1.48
-4 -8 13 82.89 4.49
-4 8 13 84 4.77
-4 8 13 68.34 8.8
9 3 -1 72.67 3.88
-9 -3 1 74.69 4.34
-9 3 1 81.84 3.79
-9 -3 1 82.66 3.81
-5 -14 10 32.95 4.48
-5 14 10 33.5 6.25
-5 14 10 34.08 2.54
-5 14 10 32.93 4.5
-6 16 -2 7.29 3.21
6 16 2 8.93 4.12
6 16 2 7.36 3.44
-1 21 6 49.49 2.58
-1 21 6 50.31 8.06
1 21 -6 45.43 3
3 17 7 22.88 6.18
3 17 7 18.98 5.92
-7 -6 11 17.78 4.4
-7 6 11 16.89 5.98
-7 -6 11 14.35 3.07
-7 6 11 15.99 5.1
-7 -15 4 127.04 5.28
-7 15 4 134.7 4.46
-7 15 4 129.5 6.12
7 15 -4 132.44 4.9
-4 20 -2 22.06 2.43
4 20 2 25.59 3.48
4 20 2 34.36 4.2
5 6 9 3.64 2.08
5 -6 9 4.01 1.95
5 6 9 3.16 1.05
6 -2 8 31.54 4.41
6 2 8 31.17 3.32
-7 -9 10 58.46 5.13
-7 9 10 56.82 2.91
-7 -9 10 55.3 7.37
-7 9 10 50.72 3.06
-6 14 -4 39.15 3.1
6 14 4 37.23 3.23
6 14 4 34.84 2.99
-6 10 11 1.12 1.37
-6 -10 11 1.78 1.05
-6 -10 11 0.46 0.42
2 22 -4 36.77 7.78
-2 22 4 39.1 2.14
-2 22 4 37.86 5.27
-1 2 14 43.2 8.49
-1 -2 14 40.89 4.04
-1 -2 14 35.41 4.81
-1 2 14 39.23 4.41
7 10 4 36.69 2.99
7 10 4 32.93 8.32
-7 10 -4 43.61 3.77
3 21 -5 4.03 2.24
-3 21 5 4.55 2.67
-3 21 5 6.71 3.12
-2 -4 14 52.64 6.2
-2 4 14 55.96 3.05
-2 -4 14 46 2.74
-2 4 14 49.89 6.52
-8 2 10 4.13 2.43
-8 -2 10 5.07 2.27
-8 2 10 2.63 1.24
-8 -2 10 3.14 1.94
-7 -11 9 3.16 2.18
-7 11 9 4.07 1.71
-7 11 9 3.87 1.72
-7 -11 9 3.84 1.63
-6 7 12 103.7 10.52
-6 -7 12 101.32 7.97
-6 7 12 108.72 4.73
-6 -7 12 100.39 6.13
-9 5 5 39.94 5.71
-9 -5 5 41.51 3.23
-9 5 5 39.99 5.22
9 5 -5 39.72 2.39
-9 -5 5 48.8 4.03
-5 -6 13 37.71 6.75
-5 6 13 39.91 6.54
-5 -6 13 54.18 4.9
-5 6 13 36.2 7.24
1 15 10 1.26 1.78
1 15 10 1.29 0.92
1 -15 10 0.91 0.7
1 -15 10 0.79 0.83
0 20 -7 0.52 0.7
0 20 7 0.58 0.68
0 20 7 0.27 1.23
0 20 7 0.98 0.71
0 23 2 14.6 6.41
0 23 -2 14.53 6.37
-4 0 14 24.47 7.64
-4 0 14 22.94 1.96
-3 22 1 1.68 0.88
3 22 -1 2.04 1.57
9 5 -2 108.93 4.94
-9 -5 2 108.63 4.79
-9 5 2 119.43 6.22
-9 5 2 104.06 6.74
-9 -5 2 113.4 4.69
-1 -9 13 2.91 1.65
-1 9 13 4.91 2.1
-1 9 13 2.59 1.53
-1 9 13 3.84 1.86
-1 23 -1 23.66 5.84
1 23 1 18.69 8.5
-3 4 14 1.47 1.34
-3 4 14 2.68 1.44
-3 -4 14 1.05 1.48
6 8 7 37.96 2.78
6 -8 7 36.7 4.35
6 8 7 32.76 6.58
2 7 12 57.09 4.72
2 7 12 54.72 6.7
2 -7 12 57.74 3.46
4 11 9 25.89 5.16
4 -11 9 23.12 6.76
4 11 9 23.52 6.73
-6 15 8 30.14 8.76
-6 -15 8 27.57 3.11
6 15 -8 36.34 2.47
-6 15 8 28.04 1.64
5 10 8 26.59 3.45
5 -10 8 34.76 3.46
5 10 8 31.96 5.53
-2 18 9 0.76 0.87
-2 18 9 1.13 0.93
2 18 -9 0.62 0.48
-2 18 9 0.41 0.75
-2 -18 9 0.78 0.82
0 -14 11 2.75 1.97
0 14 11 4.48 2.44
0 14 11 5.89 2.08
0 16 10 14.85 6.41
0 -16 10 14.19 4.99
0 16 10 11.91 3.99
0 16 10 21.22 2.42
-4 1 14 106.74 5.62
-4 -1 14 109.54 8.53
-4 1 14 92.62 3.74
-4 -1 14 88.19 4.22
-1 18 9 54.66 4.5
-1 -18 9 58.98 2.95
-1 18 9 55.63 2.72
-1 18 9 55.67 4.24
9 4 -6 11.12 3.23
-9 4 6 11.34 4.67
-9 -4 6 11.87 3.85
-9 -4 6 11.48 4.61
-9 4 6 11.38 3.75
7 15 -1 15.87 2.88
7 15 -1 13.17 6.76
-7 15 1 16.37 1.96
7 13 2 3.07 2.22
-7 13 -2 4.51 2.95
7 13 2 5.28 2.14
-4 21 2 3.63 1.51
-4 21 2 0.94 0.97
4 18 -8 0.24 0.29
-4 18 8 0.64 0.93
-4 18 8 0.2 0.78
-4 -18 8 0.35 0.78
-8 -8 -2 22.92 4.01
8 8 2 23.87 2.24
8 8 2 23.23 8
-8 8 -2 21.93 2.5
3 22 -2 1.38 1.7
-3 22 2 0.9 0.69
-3 22 2 1.96 1.45
-9 0 7 21.77 5.82
-9 0 7 20.33 6.28
4 21 -1 0.47 0.39
4 21 -1 0.76 1.68
-4 21 1 0.53 0.7
-4 21 1 5.12 4.36
6 3 8 1.19 1.74
6 -3 8 2.74 1.39
-1 23 2 1.24 1.73
1 23 -2 0.69 0.64
6 16 -7 1.58 0.77
-6 16 7 3.07 1.45
-6 -16 7 3.04 1.17
-6 16 7 1.71 1.41
2 -11 11 3.28 1.85
2 11 11 3.1 1.92
2 11 11 4.92 2.7
-5 19 -1 34.41 2.07
5 19 1 29.36 8.61
5 19 1 34.73 3.35
-9 1 7 2.16 1.67
-9 1 7 0.73 1.12
-9 -1 7 1.13 1.25
-9 -1 7 2.07 1.6
7 4 6 22.24 3.92
7 -4 6 14.13 5.35
-7 4 -6 16.58 5.9
-2 21 6 0.52 0.69
2 21 -6 0.05 0.88
-2 21 6 0.63 1.25
9 4 -1 12.58 4.13
-9 -4 1 12.06 4.29
-9 4 1 15.18 2.89
-9 -4 1 13.9 4.83
-5 10 12 5.02 2.95
-5 10 12 6.56 2.3
-5 -10 12 6.1 2.68
-5 -10 12 3.77 1.99
1 5 13 14.26 7
1 -5 13 15.1 3.58
1 5 13 13.86 2.66
-1 3 14 5.61 2.04
-1 3 14 6.65 2.68
-1 -3 14 3.66 2.4
-1 -3 14 3.42 1.9
0 19 8 2.97 2.46
0 -19 8 1.84 0.7
0 19 8 3.57 1.69
0 21 6 0.55 0.71
0 21 6 1.1 0.9
0 21 -6 0.56 1.2
0 21 6 0.95 0.69
-8 10 7 13.21 3.94
8 10 -7 13.18 3.45
-8 -10 7 9.6 3.74
-8 -10 7 11.19 3.82
-8 10 7 13.23 6.25
-5 19 5 64.44 3.02
-5 19 5 65.73 7.98
-5 -19 5 58.11 3.44
5 19 -5 70.64 4.56
-8 -3 10 20.85 4.3
-8 -3 10 16.52 4.75
-8 3 10 19.78 4.28
-8 3 10 15.29 4.12
7 8 5 0.89 1.02
7 -8 5 0.71 0.97
7 8 5 0.6 0.8
-7 8 -5 -0.7 1.16
7 14 1 82.8 4.48
-7 14 -1 84.56 5.69
7 14 1 72.71 3.33
-3 22 0 27.42 4.4
-3 22 0 24.21 1.79
3 22 0 21.25 9.2
-4 -2 14 4.42 1.9
-4 2 14 3.34 1.69
-4 2 14 1.63 1.44
-4 -2 14 1.83 1.08
3 8 11 0.78 0.95
3 8 11 5.49 2.56
3 -8 11 2.32 2.09
1 10 12 1 1.03
1 10 12 0.84 0.96
1 -10 12 0.25 0.65
9 0 0 0.08 1.02
-9 0 0 1.02 1.2
-4 19 7 0.53 0.9
4 19 -7 2.42 0.96
-4 19 7 3.75 1.64
-4 -19 7 0.41 0.57
-9 6 4 6.52 2.64
9 6 -4 3.41 1.71
-9 -6 4 6.23 1.98
-9 6 4 5.38 3.43
-9 -6 4 5.93 2.76
1 22 4 3.59 1.54
-1 22 -4 1.47 1.16
1 22 4 0.6 1.13
-9 6 3 60.67 5.82
-9 -6 3 65.89 7.28
-9 6 3 56.29 5.58
9 6 -3 54.84 3.28
-9 -6 3 54.93 3.56
-8 -11 6 23.13 3.16
-8 -11 6 20.25 3.32
-8 11 6 21.35 7.29
8 11 -6 21.18 1.67
-8 11 6 18.54 5.6
9 1 0 29.12 2.6
9 -1 0 31.02 3.16
-9 1 0 30.1 4.49
-9 -1 0 29.83 2.1
-8 -12 3 19.56 2.63
8 12 -3 15.53 3.74
-8 -12 3 17.87 5.04
8 12 -3 14.48 2.77
-8 12 3 18.55 2.24
-8 12 3 19.39 4.18
1 -13 11 21.08 4.64
1 13 11 23.47 6.58
1 13 11 28.41 4.55
-9 -2 7 3.8 1.66
-9 2 7 7.55 3.13
-9 -2 7 8.38 2.83
-9 2 7 5.91 1.8
-4 -17 9 55.39 4.28
-4 17 9 64.58 3.8
-4 17 9 61.59 4.17
-4 17 9 58.82 2.53
0 8 13 32.58 2.67
0 -8 13 30.83 1.91
0 -8 13 33.01 6.1
-8 -6 -3 32.36 2.22
8 6 3 32.08 2.57
-8 6 -3 32.78 2.3
8 -6 3 33.08 7.66
-7 -15 5 9.29 3.56
-7 15 5 14.78 2.36
-7 15 5 8.88 3.86
7 15 -5 12.42 4.37
7 12 3 20.58 1.89
7 12 3 26.28 8.06
-7 12 -3 27.21 4.17
-4 21 3 9.41 4.22
4 21 -3 11.79 5.53
-4 21 3 9.76 3.91
-6 14 9 27.14 2.39
-6 -14 9 31.18 4.72
-6 14 9 37.76 3.57
1 -17 9 16.76 4.21
1 17 9 17.65 7.01
1 17 9 17.68 7.01
1 -17 9 15.34 4.58
-6 11 -6 0.09 1.16
6 11 6 1.22 1.28
6 11 6 1.75 2.1
-2 15 11 94.74 5.82
-2 15 11 109.95 8.97
-2 -15 11 98.92 4.02
-2 15 11 99.61 5.5
3 21 3 89.26 5.15
3 21 3 85.33 5.44
-3 21 -3 77.02 4.12
4 8 10 2.33 1.55
4 8 10 0.81 1.03
4 -8 10 0.03 0.69
-6 17 -1 6.3 2.85
6 17 1 6.87 4.24
6 17 1 2.8 2.45
8 12 -4 18.5 4.67
-8 -12 4 24.22 4.01
-8 -12 4 22.52 1.4
-8 12 4 24.76 2.84
-8 12 4 23.92 8
-8 7 9 65.82 4.74
8 7 -9 55.04 2.73
-8 7 9 64.66 6.45
-8 -7 9 66.94 4.5
-8 -7 9 63.3 4.23
5 17 4 30.87 6.32
-5 17 -4 35.3 4.12
5 17 4 32.18 9.93
-2 -5 14 0.58 0.45
-2 -5 14 2.09 1.33
-2 5 14 1.16 1.48
-2 5 14 0.51 0.86
4 18 5 21.42 1.9
-4 18 -5 22.78 1.61
4 18 5 25.26 7.87
-6 0 13 1.18 0.85
-6 0 13 0.5 0.94
4 21 0 3.89 3.25
-4 21 0 2.35 1.12
4 21 0 2.64 1.32
8 0 4 0.91 1.35
-8 0 -4 1.94 1
3 14 9 61.35 8.96
3 -14 9 59.06 5.57
3 14 9 69.26 4.37
9 2 0 17.32 7.17
9 -2 0 14.45 3.45
-9 2 0 15.9 3.44
-9 -2 0 14.89 6.59
-6 1 13 1.41 0.83
-6 -1 13 -0.57 0.83
-6 1 13 0.63 1.15
-6 -1 13 0.76 1.24
-5 17 8 9.71 3.75
-5 17 8 7.08 2.6
5 17 -8 6.37 3.04
-5 17 8 7.91 3.33
-5 -17 8 8.49 3.65
6 -4 8 0.35 1.07
6 4 8 0.67 0.78
-4 3 14 79.23 9.03
-4 -3 14 81.26 7.09
-4 3 14 66.12 5.06
-4 -14 11 0.38 0.47
-4 14 11 1.69 1.57
-4 -14 11 1.05 0.76
-4 14 11 0.36 1.23
-4 14 11 0.7 0.92
-8 9 8 19.82 3.71
8 9 -8 19.81 2.31
-8 9 8 24.23 8.36
-8 -9 8 21.93 4.56
-8 -9 8 21.09 5.93
-8 -1 -4 2.27 1.47
8 -1 4 2.2 1.29
8 1 4 2.07 1.6
-8 1 -4 1.74 0.63
8 12 -2 0.4 0.41
-8 -12 2 0.33 0.85
8 12 -2 -0.14 0.88
-8 12 2 1.89 1.93
-8 -12 2 0.12 0.35
-3 22 3 4.35 2.31
3 22 -3 4.46 2.23
-3 22 3 4.97 1.67
-3 19 8 22.08 2.12
-3 -19 8 16.24 3.12
3 19 -8 15.94 4.14
-3 19 8 17.92 6.03
-7 7 11 14.7 5.77
-7 -7 11 13.31 2.98
-7 -7 11 15.63 2.27
-7 7 11 13.19 4.32
-3 5 14 32.94 9.2
-3 5 14 27.27 3.8
-3 -5 14 27.16 7.26
2 22 3 26.73 5.13
-2 22 -3 30.28 3.05
2 22 3 22.56 5.07
5 7 9 11.41 3.6
5 7 9 11.54 4.44
5 -7 9 9.95 3.33
-6 13 -5 0.93 1.01
6 13 5 3.61 2.28
-6 18 2 66.46 3.49
-6 -18 2 64.28 3.37
6 18 -2 64.17 4.37
4 19 4 8.74 4.67
4 19 4 18.84 4.34
-4 19 -4 16.91 3.27
-2 10 13 30.62 5.14
-2 10 13 28.33 4.82
-2 -10 13 29.42 5.97
-2 10 13 30.95 2.55
-9 -6 5 2.25 0.97
-9 -6 5 2.14 0.92
-9 6 5 1.36 1.35
9 6 -5 0.57 0.46
-1 -4 14 3.42 1.96
-1 4 14 -0.6 1.15
-1 4 14 0.59 0.61
-1 -4 14 0.51 0.88
-9 -5 6 49.62 5.24
-9 5 6 53.93 7.11
-9 5 6 49.83 6.88
-9 -5 6 57.08 4.42
9 5 -6 53.67 3.29
-1 22 5 25.35 4.68
-1 22 5 30.33 1.64
1 22 -5 29.36 3.46
-7 0 12 0.45 0.81
-7 0 12 0.29 0.71
-8 -4 10 7.21 2.52
-8 4 10 4.95 2.27
-8 4 10 9.58 2.93
-8 -4 10 6.9 3.7
6 18 -3 34.64 5.75
-6 18 3 35.52 2.79
-6 -18 3 37.64 2.41
-9 -3 7 16.51 4.01
-9 3 7 11.88 4.19
-9 3 7 15.38 6.36
-9 -3 7 13.84 4.67
8 10 1 9.09 3.35
-8 -10 -1 5.87 3.8
8 10 1 8.36 3.23
-8 10 -1 7.56 3.62
-8 -11 0 1.54 1.25
-8 11 0 3.92 1.68
8 11 0 3.08 2.01
8 11 0 2.86 1.29
1 23 2 3.45 2.11
-1 23 -2 4.53 3.18
-9 6 2 0.27 0.89
-9 -6 2 0.97 1.08
-9 6 2 -0.33 1.02
9 6 -2 0.52 0.77
-9 -6 2 0.5 0.88
-7 -1 12 9.3 3
-7 1 12 6.46 2.43
-7 -1 12 10.81 3.65
-7 1 12 10.53 3.76
5 18 3 3.61 2.7
-5 18 -3 2.63 1.24
5 18 3 2.67 1.08
5 16 5 4.35 2.76
5 16 5 1.13 0.88
-5 16 -5 0.73 0.9
-6 2 13 30.91 6.09
-6 2 13 31.21 5.56
-6 -2 13 34.97 5.36
-6 -2 13 27.78 4.33
-1 -15 11 13.96 5.42
-1 15 11 21.28 2.71
-1 15 11 19.64 6.45
-1 15 11 17.71 5.25
7 5 6 13.85 5.31
7 -5 6 14.54 6.55
7 5 6 12.16 6.83
-7 5 -6 14.22 6.37
9 5 -1 2.28 1.22
-9 5 1 2.09 1.17
-9 -5 1 1.78 1.55
6 17 -6 213.71 4.37
-6 -17 6 213.23 4.2
-6 17 6 209.92 7.45
4 0 11 0.23 2.05
4 0 11 0.73 0.99
-5 -7 13 23.18 6.95
-5 -7 13 27.65 5.33
-5 7 13 29.31 3.66
-5 7 13 29.45 6.82
8 -2 4 53.87 8.28
-8 -2 -4 53.31 3.08
-8 2 -4 62.39 3.86
8 2 4 54.03 6.13
-2 13 12 2.96 1.83
-2 13 12 5.36 2.19
-2 13 12 1.89 1.31
-2 -13 12 2.62 2.27
-5 18 7 4.28 1.92
-5 -18 7 3.16 1.17
-5 18 7 3.06 1.41
5 18 -7 3.66 1.89
3 20 -7 55.95 4
-3 20 7 61.85 3.85
-3 20 7 62.56 4.29
3 0 12 0.21 0.7
3 0 12 1.01 1.39
-4 -9 13 96.23 5.09
-4 9 13 101.08 4.41
-4 9 13 82.04 8.95
3 16 8 38.53 3.47
3 16 8 44.02 3.16
2 14 10 5.58 2.96
2 -14 10 2.89 1.53
2 14 10 3.43 1.57
4 1 11 16.89 6.47
4 -1 11 23.01 5.54
4 1 11 19.84 7.44
-5 -16 9 25.37 4.18
-5 16 9 25.01 2.71
-5 16 9 21.48 2.72
-5 16 9 24.23 2.24
-4 17 -6 32.85 2.06
4 17 6 36.34 2.59
4 17 6 39.67 4.6
-9 -3 0 6.36 2.17
9 3 0 3.38 1.94
-9 3 0 8.09 2.65
3 1 12 5.45 2.78
3 -1 12 5.41 2.07
3 1 12 5.53 1.83
3 -1 12 3.96 3.18
-3 22 -1 15.67 1.31
3 22 1 13.07 4.58
-3 22 -1 16.2 5.77
3 22 1 11.39 5.46
-4 12 12 11.2 3.42
-4 12 12 10.53 4.09
-4 12 12 9.26 3.83
-4 -12 12 12.55 3.91
2 23 -1 1.39 1.56
-2 23 1 0.99 1.1
-6 -8 12 0.44 1.22
-6 -8 12 0 0.56
-6 8 12 -0.01 0.74
-6 8 12 0.61 0.68
1 23 -3 4.43 2.44
-1 23 3 4.44 1.67
1 6 13 2.5 1.41
1 6 13 4.75 1.63
1 -6 13 2.92 1.61
0 23 3 2.75 1.01
0 23 -3 0.85 1.4
-7 15 0 40.4 2.65
7 15 0 42 3.25
7 15 0 40.93 2.14
-3 18 9 5.52 3.13
-3 18 9 4.83 2.21
-3 -18 9 3.9 2.04
-7 -13 8 1.58 1.16
7 13 -8 0.5 0.38
-7 13 8 1.26 1.89
-7 13 8 0.8 0.98
-7 -14 7 2.89 2.35
-7 14 7 3.5 1.47
7 14 -7 0.71 0.55
-7 14 7 3.55 1.84
-7 2 12 27.6 5.78
-7 -2 12 28.11 4.76
-7 -2 12 30.34 4.05
-7 2 12 28.77 5.13
-3 10 13 34.69 2.79
-3 -10 13 32.65 3.91
-3 10 13 28.41 3.08
-3 10 13 30.17 4.63
2 16 9 1.74 1.85
2 -16 9 3.94 1.8
2 16 9 4.25 1.73
0 12 12 12.05 3.96
0 -12 12 12.52 3.53
0 12 12 7.84 3.37
0 -12 12 7.41 3.13
0 18 9 23.28 6.34
0 18 9 27.27 2.29
0 18 9 20.48 7.21
0 -18 9 23.57 4.39
0 22 -5 18.72 4.43
0 22 5 22.34 6.5
0 22 5 14.57 4.49
6 18 -1 3.04 2.22
-6 18 1 2.32 1.23
6 18 -1 0.69 0.69
-8 -12 5 20.17 2.56
-8 -12 5 18.25 3.5
-8 12 5 17.73 6.95
8 12 -5 15.96 3.41
-8 12 5 20.95 2.77
2 23 0 13.51 5.94
-2 23 0 12.41 6.44
-4 20 6 1.65 0.97
-4 -20 6 0.34 0.33
-4 20 6 1.97 1.1
4 20 -6 0.52 0.58
-2 17 10 20.35 5.58
-2 -17 10 12.45 3.45
-2 17 10 14.79 4.69
-2 17 10 13.02 4.16
-2 17 10 23.45 2.41
5 13 7 61.27 4.62
5 13 7 62.05 3.71
2 8 12 9.71 4.22
2 -8 12 13.37 5.48
2 8 12 10.54 4.48
-3 15 11 0.6 0.78
-3 -15 11 0.35 0.83
-3 15 11 1.47 2.15
-3 15 11 0.24 0.83
-3 15 11 0.25 0.79
-4 -4 14 55.09 7.75
-4 4 14 63.84 5.14
-4 4 14 51.49 4.28
4 -2 11 8.46 2.99
4 2 11 6.51 2.6
4 2 11 4.13 2.43
2 20 6 7.89 3.34
2 20 6 6.82 2.83
-7 10 10 131.61 8.6
-7 -10 10 135.85 6.34
-7 10 10 151.32 5.54
-7 -10 10 143.1 5.3
-5 20 2 37.84 2.26
5 20 -2 37.87 8.37
3 2 12 15.89 2.54
3 -2 12 13.34 4.22
3 -2 12 14.11 4.01
3 2 12 16.18 3.74
-6 -3 13 57.56 3.93
-6 3 13 62.66 8.3
-6 3 13 50.92 7.92
-6 -3 13 56.5 5.69
6 18 -4 1.43 1.17
-6 -18 4 0.36 0.64
-6 18 4 0.1 0.69
8 3 4 48.23 4.48
8 -3 4 46.91 6.61
-8 -3 -4 43.98 4.22
-8 3 -4 50.36 2.94
3 12 10 16.38 5.05
3 -12 10 15.21 2.24
3 12 10 13.21 4.19
4 21 -4 0.77 0.7
-4 21 4 -0.49 1.01
-4 21 4 0.9 1.25
6 9 7 39.54 4.97
6 9 7 37.28 4.86
6 -9 7 35.02 4.98
-6 9 -7 33.94 3.53
-5 13 11 10.96 3.31
-5 -13 11 8.11 3.65
-5 -13 11 6.07 3.36
-5 13 11 10.42 2.35
-5 13 11 12.39 5.81
-2 23 2 13.45 6.26
2 23 -2 10.31 5.68
-9 -7 4 1.8 1.38
-9 7 4 1.98 1.3
-9 -7 4 1.08 0.92
-9 7 4 1.59 1.56
9 4 -7 8.41 2.78
-9 4 7 10.46 3.52
-9 -4 7 13.81 2.82
-9 -4 7 12.6 4.74
-9 4 7 13.47 3.54
6 5 8 1.37 1.79
6 5 8 0.12 0.87
6 -5 8 0.54 1.15
-1 -17 10 144.92 5.98
-1 17 10 149.78 10.19
-1 17 10 148.14 7.62
-1 17 10 140.36 6.56
-9 7 3 11.68 3.18
-9 -7 3 10.69 3.41
9 7 -3 11.35 3.49
-9 7 3 11.68 4.07
-9 -7 3 11.45 3.64
-4 -16 10 7.71 3.84
-4 16 10 9.19 3.02
-4 16 10 7.78 2.82
-4 16 10 8.25 3.65
4 14 8 27.83 5.71
4 -14 8 29.79 3.31
4 14 8 22.48 8.05
-2 6 14 94.5 5.84
-2 6 14 103.05 4.47
-2 -6 14 86.71 6.22
-3 13 12 23.72 3.8
-3 13 12 27.26 3.98
-3 -13 12 23.54 5.59
-3 13 12 24.34 3.14
8 9 2 25.68 5.67
-8 9 -2 28.98 4.46
8 9 2 29 2.69
-8 -9 -2 19.71 5.62
-6 11 11 1.47 1.48
-6 -11 11 0.54 0.61
-6 11 11 0.31 0.66
-6 -11 11 0.4 0.58
8 12 -1 4.46 2.75
-8 -12 1 5.17 1.98
8 12 -1 7.04 3.04
-8 12 1 5.53 2.81
2 19 7 1.95 1.06
2 19 7 0.97 1.29
0 0 14 33.12 3.81
8 7 3 11.72 4.45
-8 7 -3 12.82 5.55
-8 -7 -3 12.68 4.62
8 7 3 10.71 5.41
-1 -5 14 24.57 5.42
-1 5 14 24.81 6
-1 -5 14 17.65 3.4
-1 5 14 28.3 7.92
2 22 -5 31.35 2.36
-2 22 5 29.96 5.36
-2 22 5 32.91 1.59
-1 -13 12 0.11 1.04
-1 13 12 0.8 1.03
-1 13 12 -0.24 0.97
-1 13 12 1.74 1.21
7 11 4 1.55 1.05
7 11 4 1.13 0.75
-7 11 -4 0.31 0.98
5 20 -1 0.42 0.54
5 20 -1 1.74 1.76
-5 20 1 0.65 0.77
-7 -3 12 27.47 5.7
-7 3 12 31.8 9.48
-7 3 12 33.9 4.07
-7 -3 12 25.24 4.82
-1 10 13 52.19 3
-1 -10 13 43.85 8.32
-1 10 13 43.53 4.01
-1 10 13 51.48 4.3
5 20 -3 7.61 2.76
-5 -20 3 5.98 1.97
-5 20 3 6.56 2.73
-8 5 10 3.66 1.45
-8 -5 10 1.91 2.07
-8 -5 10 0.25 0.6
-8 5 10 0.99 0.61
-4 20 -3 24.24 5.6
4 20 3 34.27 2.6
4 20 3 25.32 6.43
4 21 1 85.2 3.71
-4 21 -1 79.94 3.48
4 21 1 91.83 5.06
0 -1 14 5.63 3.01
0 1 14 6.61 2.53
-6 13 10 134.41 5.19
-6 13 10 138.84 6.24
-6 -13 10 136.98 8.2
9 4 0 24.88 6.19
-9 -4 0 20.49 7.39
-9 4 0 25.67 6.71
-3 -6 14 4.63 2.86
-3 6 14 7.91 3.36
-3 6 14 7.53 3.09
-7 9 -5 1.05 1.01
7 -9 5 0.79 0.53
7 9 5 0.77 0.52
-9 -6 6 8.8 2.38
-9 6 6 10.47 3.8
-9 6 6 11.15 3.36
-9 -6 6 12.55 3.18
9 6 -6 7.32 2.25
4 3 11 12.12 3.11
4 -3 11 9.57 3.88
4 3 11 11.98 5.09
3 9 11 22.58 4.55
3 -9 11 18.19 4.09
3 9 11 21.31 3.8
2 21 5 2.45 1.55
2 21 5 -0.09 1.18
3 -3 12 35.42 2.93
3 3 12 36.04 3.24
3 -3 12 38.83 7.79
3 3 12 45.44 3.61
5 11 8 1.58 1.23
5 -11 8 1.04 0.99
5 11 8 0.89 1.26
-7 12 9 0.47 0.72
-7 -12 9 0.31 0.45
-7 12 9 1.1 2.04
-7 -12 9 0.48 0.71
1 20 7 0.67 0.69
1 20 7 1.89 1.47
7 15 -6 3.36 2.14
-7 15 6 4.38 1.92
-7 -15 6 2.46 1.46
-7 15 6 3.73 1.26
-8 -8 9 31.56 7.42
-8 -8 9 34.62 6.22
-8 8 9 42.18 3.64
-8 8 9 44.18 4.96
3 22 -4 23.61 5.19
-3 22 4 23.72 3.51
-3 22 4 24.8 1.91
5 19 2 10.92 4.88
-5 19 -2 8.23 3.81
5 19 2 4.58 4.05
2 23 1 32.71 3.7
-2 23 -1 30.85 8.14
0 9 13 77.38 4.18
0 -9 13 85.6 5.93
0 9 13 88.69 5.3
0 -9 13 73.83 3.42
7 6 6 64.93 4.94
-7 6 -6 66.73 3.95
7 6 6 66.22 7.36
7 -6 6 68.61 6.44
-9 6 1 52.56 4.82
-9 -6 1 52.04 2.83
9 6 -1 47.27 3.45
0 -2 14 1.64 1.79
0 2 14 1.91 1.41
-3 21 6 4.77 1.59
-3 21 6 2.76 1.74
3 21 -6 2.38 1.82
9 7 -5 25.58 1.74
-9 -7 5 28.28 3.91
-9 7 5 20.7 3.08
-9 -7 5 23.27 4.76
-9 7 5 22.37 6.55
5 15 6 0.86 1.47
-5 15 -6 0.52 0.59
-7 -16 3 10.48 3.97
7 16 -3 7.78 2.92
-7 16 3 10.05 3.93
1 21 6 16.8 7.31
1 21 6 19.34 2.51
1 21 6 23.19 4.39
-5 19 6 6.49 1.49
-5 -19 6 5.32 1.61
-5 19 6 4.82 2.04
5 19 -6 4.69 2
-6 -4 13 40.14 6.49
-6 -4 13 32.62 5.47
-6 4 13 39.81 5.82
-6 4 13 31.08 4.43
4 12 9 8.11 2.02
4 12 9 3.8 2.2
4 -12 9 5.71 2.78
-5 -11 12 1.53 1.13
-5 -11 12 0.36 0.6
-5 11 12 1.48 2.19
-5 11 12 2.04 0.81
6 16 3 59.33 3.63
-6 16 -3 57.83 3.15
6 16 3 50.6 4.62
4 9 10 5.83 3.88
4 9 10 8.97 4.46
4 -9 10 6.22 2.26
-8 -4 -4 34.46 2.87
8 4 4 33.05 2.88
8 -4 4 25.95 3.67
-8 4 -4 28.3 7.73
-9 -7 2 2.05 1.66
-9 7 2 2.42 1.5
-9 7 2 1.57 1.06
-9 -7 2 2.82 1.67
9 7 -2 0.89 1.33
-8 11 7 0.41 1.4
-8 -11 7 0.37 0.8
-8 -11 7 0.62 0.69
-9 0 8 -0.12 0.58
-9 0 8 -0.12 0.93
-7 8 11 0.81 0.87
-7 -8 11 1.23 1.06
-7 8 11 0.56 1.15
-7 -8 11 0.65 1.06
3 19 6 13.53 6.29
3 19 6 14.27 5.44
5 8 9 9.33 3.91
5 -8 9 9.48 4.11
5 8 9 7.01 4.81
-7 -16 2 1.45 1.2
7 16 -2 3.07 1.65
7 16 -2 2.5 1
-7 16 2 2.61 2.44
-4 5 14 4.02 2.44
-4 -5 14 8.28 3.64
-4 5 14 5.96 2.47
-5 -15 10 3.64 1.71
-5 15 10 2.68 1.24
-5 15 10 3.07 1.27
-5 15 10 2.59 1.22
3 20 5 54.2 3.3
3 20 5 43.76 3.41
-9 1 8 61.67 5.88
-9 -1 8 59.76 6.36
-9 -1 8 52.96 4.82
-9 1 8 61.18 4.52
1 11 12 35.94 3.52
1 11 12 40.34 4.7
1 -11 12 26.61 5.59
2 12 11 149.84 8.29
2 12 11 140.27 7.74
2 -12 11 137 7.11
-6 18 0 3.99 2.17
6 18 0 2.45 0.7
6 18 0 0.77 1.52
-7 -4 12 14.24 5.32
-7 4 12 15.76 4.08
-7 4 12 18.1 5.8
-7 -4 12 30.87 4.8
5 0 10 0.59 1.58
4 16 7 1.05 1.41
-3 17 10 4.22 1.71
-3 17 10 5.94 2.15
-3 -17 10 6.92 2.77
-3 17 10 1.81 1.57
6 15 4 1.44 1.21
6 15 4 0.24 1.19
-6 15 -4 -0.59 0.97
-9 -5 7 3.48 1.4
-9 5 7 5.59 2.76
-9 -5 7 5.6 2.28
-9 5 7 6.73 2.23
1 7 13 3.38 1.74
1 -7 13 1.9 1.45
1 7 13 3.01 1.68
-5 8 13 16.35 6.38
-5 -8 13 15.24 5.27
-5 -8 13 9.52 4.3
-5 8 13 14.53 2.38
5 1 10 33.26 5.05
5 -1 10 35.44 4.06
5 1 10 34.91 4.91
2 23 -3 4.83 2.13
-2 23 3 3.14 1.83
-7 16 4 0.33 1.06
-7 16 4 0.32 0.51
-7 -16 4 0.85 0.88
7 16 -4 1.27 1.18
1 23 3 85.42 6.31
-1 23 -3 75.65 4.75
-5 20 0 1.1 1.25
5 20 0 1.19 0.54
5 20 0 1.58 1.58
2 0 13 1.35 1.51
2 0 13 -0.06 0.3
-9 0 -1 3.24 1.61
9 0 1 1.97 1.79
1 19 8 53.74 3.98
1 19 8 56.74 4.38
-8 -10 8 42.54 5.93
-8 10 8 43.06 6.29
8 10 -8 36.76 2.29
-8 10 8 40.48 2.75
-8 -10 8 42.36 2.86
0 -3 14 3.7 1.59
0 3 14 6.54 2.14
-5 20 4 -0.1 0.73
5 20 -4 0.49 0.88
-5 -20 4 0.15 0.41
4 4 11 73.32 4.91
4 -4 11 82.27 5.45
4 4 11 81.8 5.14
-7 14 -2 12.71 5.61
7 14 2 14.12 3.53
7 14 2 11.93 6.47
-8 -12 6 -0.1 0.41
-8 12 6 1.51 1.51
-8 -12 6 2.02 1.38
-8 12 6 1.74 0.78
8 12 -6 1.44 0.79
-9 2 8 12.31 3.69
-9 -2 8 11.76 4.96
-9 2 8 12.49 5.26
-9 -2 8 15.68 5.41
3 4 12 7.54 3.62
3 4 12 13.93 4.27
3 -4 12 9.34 2.64
2 1 13 5.48 1.9
2 -1 13 2.82 2.43
2 1 13 2.46 1.15
-9 1 -1 2.11 0.9
9 1 1 0.82 0.84
-9 -1 -1 1.71 1.11
9 -1 1 1.19 1.99
-5 0 14 0.05 2.1
3 22 2 1.46 1.71
-3 22 -2 1.85 0.91
3 22 2 1.61 1.66
6 6 8 13.85 5.25
6 6 8 12.6 4.86
6 -6 8 12.18 7.05
-6 18 5 20.95 2.8
6 18 -5 21.78 4.75
-6 -18 5 24.78 3.28
6 17 2 14.62 2.6
-6 17 -2 6.01 3.01
6 17 2 5.71 3.87
2 18 8 3.93 2.4
2 18 8 3.06 2.2
2 -18 8 0.99 0.72
-9 5 0 110.36 6.23
9 5 0 105.68 5.74
-9 -5 0 115.19 7.06
-5 -1 14 23.79 7.65
-5 1 14 26.94 5.86
0 -15 11 176.75 4.91
0 15 11 161.46 8.29
0 15 11 179.75 6.75
0 15 11 136.23 7.03
6 12 6 53.79 4.29
6 12 6 52 3.67
-6 12 -6 53.29 3.84
-1 6 14 4.43 1.77
-1 -6 14 1.84 0.9
-1 -6 14 2.66 1.26
-1 6 14 1.64 1.22
5 -2 10 3.15 1.37
5 2 10 2.25 1.48
5 2 10 3.19 2.05
1 -16 10 0.73 0.75
1 -16 10 2.01 1.81
1 16 10 2.63 1.7
1 16 10 5.12 3.02
-8 13 3 0.23 0.62
-8 13 3 0.36 1.23
-8 -13 3 0.68 0.67
8 13 -3 1.03 1.14
8 13 -3 0.46 0.55
-8 -6 10 2.22 1.32
-8 6 10 1.27 0.93
-8 -6 10 0.98 1.71
-8 6 10 1.16 1.52
-1 20 8 10.22 4.53
1 20 -8 8.54 2.71
-1 20 8 11.88 4.18
-1 20 8 9.15 4.59
-6 9 12 9.51 3.77
-6 -9 12 6.99 3.68
-6 -9 12 11.01 3.59
-6 9 12 10.88 3.68
-2 11 13 30.39 5.93
-2 -11 13 36.34 4.7
-2 11 13 35.81 5.06
-2 11 13 37.55 4.16
-1 21 7 4.65 4.44
-1 21 7 3.44 1.69
1 21 -7 0.87 0.77
-1 21 7 2.31 1.61
7 13 3 1.97 1.32
-7 13 -3 0.18 0.73
7 13 3 4.52 2.51
3 18 7 1.44 1.33
3 18 7 1.18 1.27
-2 7 14 0.43 1.08
-2 7 14 1.87 1.53
2 2 13 58.89 4.46
2 -2 13 69.6 4.56
9 -2 1 45.63 3.46
-9 2 -1 40.08 3.1
-9 -2 -1 41.24 2.92
9 2 1 40.18 3.48
1 23 -4 9.74 4.43
-1 23 4 12.96 2.97
-6 16 8 0.44 0.25
-6 -16 8 0.78 1.12
-6 16 8 0.82 1.06
6 16 -8 0.91 0.7
-4 -10 13 13.08 4.17
-4 10 13 12.99 4.89
-4 10 13 15.58 4
-4 10 13 9.54 3.83
-4 10 13 12.36 5.08
-8 -11 -1 84.98 7.04
-8 11 -1 82.25 8.33
8 11 1 86.32 7.14
8 11 1 79.01 4.85
7 16 -1 50.36 3.52
7 16 -1 47.76 2.79
-7 16 1 48.37 5.25
-8 13 4 0.68 0.77
-8 -13 4 1.66 0.74
8 13 -4 0.45 0.49
-8 13 4 0.88 1.08
1 -14 11 117.42 5.83
1 14 11 131.03 7.33
1 14 11 129.06 7.99
1 -14 11 133.35 6.81
-9 8 4 -0.26 0.82
-9 -8 4 0.22 0.87
-9 -8 4 0.34 0.84
-9 8 4 1.32 1.77
9 8 -4 0.73 0.62
9 8 -4 0.29 1.1
-6 -5 13 25.17 4.53
-6 5 13 28.8 5.47
-6 -5 13 24.7 2.79
-6 5 13 24.2 8.05
2 9 12 9.36 3.34
2 9 12 11.31 5.36
2 -9 12 9.06 4.84
1 22 5 0.08 0.42
-1 22 -5 0.52 0.9
1 22 5 1.68 1.62
-7 15 -1 17.33 7.17
7 15 1 21.73 6.22
7 15 1 17.22 3.51
-2 20 8 16.54 3.72
2 20 -8 9.65 4.19
-2 20 8 18.12 1.7
-5 2 14 5.3 2.43
-5 -2 14 6.74 2.84
-5 2 14 5.25 3.38
-9 -8 3 8.91 4.25
-9 -8 3 11.46 4.74
-9 8 3 9.21 4.17
-9 8 3 8.34 2.75
9 8 -3 7.3 3.7
9 8 -3 8.06 3.55
-8 -5 -4 13.47 5.5
8 -5 4 13.04 4.57
8 5 4 9.73 6.94
-8 5 -4 16.31 4.79
-9 3 8 0.51 0.99
-9 -3 8 2.81 1.33
-9 -3 8 1.73 1.11
-9 3 8 1.42 1.3
-3 -7 14 0.06 0.67
-3 7 14 0.68 0.78
-3 7 14 0.91 1.17
3 21 4 2.53 1
-3 21 -4 2.86 1.08
3 21 4 2.7 1.39
0 17 10 6.93 3.62
0 -17 10 6.82 2.87
0 17 10 5.57 2.76
0 17 10 5.12 2.55
-8 -8 -3 4.18 1.95
8 8 3 3.6 1.85
8 8 3 5.21 3.06
-8 8 -3 5.57 2.37
8 12 0 4.26 2.9
-8 -12 0 3.37 1.49
8 12 0 3.69 1.88
-8 12 0 5.91 2.81
-9 -7 6 94.9 5.53
-9 7 6 81.05 7.7
-9 -7 6 85.65 6.9
-9 7 6 95.65 5.6
9 7 -6 82.09 4.71
0 23 4 5.55 2.85
0 23 -4 4.59 2.25
2 22 4 50.6 4.53
2 22 4 48.9 3.94
4 21 -5 79.97 6.2
-4 21 5 71.78 5.12
-4 21 5 80.24 4.57
-8 -13 2 5.38 2.67
8 13 -2 5.78 3.02
-8 13 2 8.37 3.94
8 13 -2 3.94 2.24
-8 -13 2 8.36 3.57
0 -4 14 89.74 4.76
0 4 14 91.55 5.36
0 -4 14 89.82 9.41
-7 5 12 13.33 5.18
-7 5 12 16.63 5.92
-7 -5 12 13.34 5.79
-7 -5 12 15.43 4.17
-3 11 13 14.69 3.49
-3 11 13 12.06 5.36
-3 -11 13 11.11 4.06
-3 11 13 9.41 3.82
5 3 10 4.5 2.1
5 -3 10 2.82 3.24
5 3 10 4.97 2.85
0 24 0 13.96 2.24
-6 17 7 1.22 0.85
-6 -17 7 0.29 0.81
-6 17 7 0.06 0.77
6 17 -7 -0.01 0.33
-2 21 7 0.74 0.93
2 21 -7 1.31 1.04
-2 21 7 7.29 1.34
-6 -15 9 4.17 1.76
-6 15 9 3.81 2.22
-6 15 9 2.83 1.39
-2 23 -2 7.82 3.82
2 23 2 8.18 3.66
2 23 2 7.73 4.77
7 -7 6 9.07 2.82
7 7 6 9.81 5.22
-7 7 -6 8.33 2.94
7 7 6 7.23 2.79
-9 7 1 0.58 1.06
9 7 -1 2.94 1.38
-9 -7 1 2.16 1.6
-4 -6 14 -0.28 0.84
-4 6 14 0.41 1.22
-4 6 14 0.44 0.79
-8 0 11 0.46 1.45
-8 0 11 0.61 1
-6 10 -7 0.57 0.6
6 -10 7 0.91 1.35
6 10 7 1.23 0.96
6 10 7 3.14 4.04
2 3 13 3.73 0.81
2 -3 13 2.17 1.24
-9 -3 -1 49.81 8.44
9 3 1 53.56 3.68
9 -3 1 48.2 9.48
-9 3 -1 53.86 4.08
-6 14 -5 78.03 4.85
6 14 5 72.23 6.22
6 14 5 79.37 4.87
4 -5 11 32.69 5.8
4 5 11 31.12 4.6
-7 11 10 1.07 1.67
-7 -11 10 1.38 1.42
-7 11 10 0.99 0.79
-7 -11 10 0.48 0.74
3 15 9 16.15 5.71
3 -15 9 14.23 4.46
3 15 9 17.96 6.74
-7 16 5 30.19 3.6
-7 16 5 21.82 3.5
7 16 -5 23.12 4.19
-7 -16 5 27.48 2.89
-8 1 11 1.11 1.19
-8 -1 11 0.96 1.25
-8 1 11 1 1.17
3 -5 12 24.24 5.51
3 5 12 23.71 6.53
3 5 12 30.18 3.03
4 21 2 2.27 1.09
-4 21 -2 1.68 0.87
4 21 2 1.64 1.38
-8 10 -2 7.66 5.75
8 10 2 6.99 3.45
8 10 2 6.18 2.76
-9 -6 7 3.36 1.69
-9 6 7 3.32 1.58
-9 -6 7 4.23 2.44
-9 6 7 5.82 1.99
-2 19 9 49.43 8.42
-2 19 9 56.21 3.75
-2 19 9 55.91 7.88
-2 -19 9 44.84 5.53
-5 -3 14 13.28 5.26
-5 3 14 17.99 4.14
-5 3 14 14.99 6.37
-4 15 11 11.4 5.04
-4 15 11 13.41 4.91
-4 -15 11 12.15 4.12
-4 15 11 11.79 3.23
-2 16 11 1.53 0.73
-2 16 11 0.91 1.35
-2 -16 11 1.23 1.22
9 8 -5 0.42 0.83
-9 -8 5 1.29 1.51
-9 8 5 0.76 0.6
9 8 -5 0.76 0.72
-9 -8 5 0.79 0.55
-1 19 9 1.83 1.32
-1 19 9 1.66 1.4
-1 -19 9 0.15 0.35
-1 19 9 1.7 1.21
0 24 -1 0.52 0.89
0 24 1 0.75 2.15
-4 -19 8 78.82 4.18
-4 19 8 85.97 5.07
-4 19 8 74.26 6.06
4 19 -8 71.07 5.09
-4 -13 12 5.87 2.4
-4 13 12 6.96 3
-4 13 12 6.31 3.65
-4 13 12 6.44 3.14
-2 14 12 51.11 3.29
-2 -14 12 51.14 3.45
-2 14 12 44.77 5.67
-2 14 12 41.47 6.08
9 8 -2 27.32 5.08
9 8 -2 24.03 3.98
-9 -8 2 24.92 2.45
-9 -8 2 26.99 5.53
-9 8 2 23.52 2.64
-1 22 6 0.63 0.59
-1 22 6 0.8 1.53
1 22 -6 0.56 0.85
-8 -9 9 3.06 1.97
8 9 -9 2.42 1.32
-8 -9 9 3.7 2.12
-8 9 9 3.68 1.26
-8 9 9 4 2.2
0 -13 12 15.66 5.39
0 13 12 18.43 5.51
0 13 12 13.38 5.58
7 10 5 4.64 2.49
7 10 5 3.98 2.18
-7 10 -5 4.31 1.87
7 0 7 8.37 2.77
8 13 -5 2.24 1.84
-8 13 5 4.84 2.47
-8 -13 5 4.82 2.01
-8 13 5 3.43 1.31
3 10 11 3.84 2.03
3 10 11 5.37 3.24
3 -10 11 5.83 2.71
-1 11 13 4.61 2.46
-1 11 13 3.41 1.67
-1 11 13 4.29 2.3
-1 -11 13 3.76 2.51
-9 -4 8 3.32 1.29
-9 4 8 5.18 1.9
-9 4 8 5.06 3.2
-9 -4 8 7.17 2.45
0 21 7 11.49 4.19
0 21 7 9.28 3.1
0 21 7 13.04 5.08
0 21 -7 8.14 3.33
-8 2 11 18.46 3.51
-8 -2 11 18.09 4.31
-8 2 11 13.96 5.62
-8 -2 11 14.54 5.5
-9 6 0 0.98 1.75
-9 -6 0 1.09 1.18
9 6 0 0.78 1.11
-4 18 9 35.24 3.58
-4 -18 9 40.76 4.64
-4 18 9 37.44 3.6
7 -1 7 2.91 1.49
7 1 7 4 1.82
-7 14 8 0.68 0.92
-7 14 8 0.85 1.02
7 14 -8 0.72 0.46
-7 -14 8 0.61 0.36
-7 -9 11 26.5 2.4
-7 9 11 23.06 6.62
-7 9 11 25.52 5.09
-7 -9 11 25.98 7.15
-3 22 5 115.02 5.83
-3 22 5 119.3 6.93
3 22 -5 120.62 7.74
5 9 9 30.7 4.09
5 -9 9 27.24 3.47
5 9 9 31.25 3.13
1 18 9 11.93 5.24
1 -18 9 10.66 2.62
1 -18 9 11.51 3.21
1 18 9 15.09 5.67
-5 20 -1 2.07 1.06
5 20 1 0.95 0.93
5 20 1 1.52 0.77
-6 12 11 1.17 1.38
-6 -12 11 0.99 1.03
-6 -12 11 1.26 0.86
-6 12 11 0.94 1.42
0 -10 13 10.91 3.03
0 10 13 12.45 3.83
0 10 13 13.84 5.6
0 -10 13 15.24 5.11
6 -7 8 51.48 9.04
6 7 8 57.37 4.48
6 7 8 50.54 7.02
1 8 13 0.08 0.66
1 8 13 0.72 1.09
1 -8 13 0.25 0.83
6 18 1 22.13 5.32
-6 18 -1 15.14 5.73
6 18 1 21.01 4.26
2 15 10 11.38 5.48
2 15 10 11.3 4.15
2 -15 10 6.36 3.87
1 24 0 1.99 1.82
-1 24 0 1.01 1.21
0 20 8 14.52 3.94
0 20 8 12.39 5.27
-7 12 -4 16.23 6.24
7 12 4 13.32 6.1
7 12 4 15.13 5.28
5 4 10 34.23 4.4
5 -4 10 27.39 4.24
5 4 10 26.01 4.43
3 13 10 18.47 4.9
3 -13 10 15.72 4.21
3 13 10 15.33 4.18
-5 20 5 1.52 1.2
-5 -20 5 1.36 0.7
5 20 -5 1.1 1.38
-5 20 5 1.27 1.29
-5 18 -4 39.43 2.81
5 18 4 35.88 3.62
5 18 4 41.92 3.03
-1 16 11 49.19 3.81
-1 16 11 53.79 6.78
-1 -16 11 46.93 5.71
-1 16 11 42.31 7.32
5 14 7 10.04 4.01
5 14 7 14.57 6.32
1 24 -1 2.12 1.74
-1 24 1 4.66 3.15
2 23 -4 0.48 1.1
-2 23 4 1.24 1.38
-1 7 14 18.6 5.37
-1 -7 14 19.69 6.51
-1 7 14 31.93 4.77
4 10 10 36.19 5.17
4 10 10 29.49 4.15
4 -10 10 25.51 4.8
-7 15 7 1.27 0.88
7 15 -7 0.26 0.65
-7 15 7 0.51 1.32
-7 -15 7 0.14 0.89
-8 7 10 57.67 5.64
-8 -7 10 54.65 3.53
-8 -7 10 48.27 6.45
-8 7 10 55.65 3.87
-4 20 7 10.68 3.33
-4 -20 7 9.21 2.99
4 20 -7 11.96 3.13
-4 20 7 11.41 4.91
2 -4 13 2.39 1.61
2 4 13 1.68 1.57
2 4 13 2.37 1.14
-9 4 -1 8.6 4.15
-9 -4 -1 7.06 2.39
9 -4 1 9.82 4.13
9 4 1 7.85 4.08
-6 -6 13 2.85 2.24
-6 6 13 1.83 1.17
-6 6 13 0.63 1.32
-6 -6 13 0.67 1.65
8 13 -1 12.06 4.17
-8 -13 1 3.57 2.72
-8 13 1 13.01 5.71
8 13 -1 13.73 1.56
-5 -18 8 13.55 4.35
5 18 -8 10.28 4.98
-5 18 8 14.02 4.91
-5 18 8 16.97 4.01
7 2 7 0.6 1.65
7 -2 7 0.91 1.54
0 5 14 12.13 5.26
0 -5 14 10.66 4.35
0 -5 14 18.43 5.33
-5 -9 13 3.95 2.26
-5 9 13 6.99 4.62
-5 9 13 6.58 3.25
-5 -9 13 4.48 2.01
-8 6 -4 86.6 6.48
8 -6 4 89.97 5.91
8 6 4 77.4 4.86
4 22 -2 0.78 1.06
-4 22 2 0.18 0.28
-4 22 2 -0.7 1.12
-5 17 -5 43.37 4.88
5 17 5 48.11 3.46
5 17 5 53.39 4.65
-5 14 11 -0.02 1.17
-5 -14 11 0.56 1
-5 14 11 1.27 0.97
-5 14 11 0.32 0.73
-4 19 -5 1.87 1.22
4 19 5 0.16 1.1
5 12 8 15.45 7.49
5 -12 8 21.47 2.79
5 12 8 17.67 4.56
-5 -4 14 1 0.97
-5 4 14 0.15 1.07
-4 22 1 156.16 8.38
4 22 -1 154.36 7.32
4 22 -1 159.14 8.1
-4 22 1 160.21 8.58
-3 23 1 1.54 1.05
-3 23 1 3.06 1.88
3 23 -1 2.99 1.73
7 16 0 15.35 4.27
7 16 0 21.11 5.77
-7 16 0 18.01 5.31
-8 3 11 0.83 0.65
-8 -3 11 0.99 0.99
-8 -3 11 2.31 1.46
-8 3 11 0.31 1.43
-3 14 12 15.57 4.54
-3 14 12 11.18 3.81
-3 14 12 14.37 3.78
-3 -14 12 12.44 5.63
-3 14 12 17.63 2.42
2 22 -6 22.61 3.29
-2 22 6 21.03 1.82
-2 22 6 22.74 4.07
3 17 8 4.84 3.67
3 17 8 2.75 1.37
-5 17 9 118.76 5.87
-5 17 9 124.54 7.21
-5 -17 9 126.93 7.28
-5 17 9 112.53 6.61
-1 14 12 4.88 2.7
-1 14 12 2.37 2.03
-1 -14 12 3.91 2.41
-1 14 12 3.81 2.27
0 22 6 30.3 2.63
0 22 -6 28.3 5.86
0 22 6 25.85 8.99
-7 6 12 1.74 1.52
-7 -6 12 0.92 1.41
-7 6 12 0.32 0.8
-7 -6 12 1.13 1.3
-2 -8 14 1.69 1.22
-2 8 14 2.23 2.14
-2 8 14 3.44 2.13
-3 16 11 106.56 5.53
-3 16 11 93.42 10.48
-3 16 11 107.77 6.16
-3 16 11 108.39 7.8
-3 -16 11 111.13 5.8
-3 23 2 0.64 0.65
3 23 -2 2.26 1.2
-3 23 2 1.55 1.19
0 24 -2 0.29 1.05
0 24 2 1.84 2.02
-7 -13 9 10.73 3.14
-7 13 9 9.98 4.38
-7 13 9 7.05 2.95
6 19 -2 4.4 2.43
-6 19 2 2.87 1.54
6 18 -6 1.44 0.88
-6 -18 6 2.67 1.45
-6 18 6 2.95 1.56
-5 -12 12 0.62 0.84
-5 12 12 0.22 0.95
-5 -12 12 0.33 0.27
-5 12 12 0.79 0.87
-5 12 12 -0.11 0.75
4 -15 8 15.35 6.47
4 15 8 17.51 5.65
4 15 8 16.47 7.44
-1 24 -1 0.12 1.99
1 24 1 0.79 1.69
-8 12 7 36.08 3.4
-8 -12 7 35.88 4.57
-8 12 7 39.09 4.15
8 12 -7 39.57 2.81
2 17 9 0.89 0.92
2 17 9 0.98 1.74
2 -17 9 0.45 0.69
-6 14 10 0.55 1.05
-6 14 10 0.63 0.55
-6 -14 10 0.73 0.63
6 19 -3 16.75 5.3
-6 -19 3 14.22 2.66
-6 19 3 18.55 6.13
4 6 11 4.99 2.63
4 -6 11 4.61 2.45
4 6 11 3.87 2.9
4 18 6 46.8 5.16
4 18 6 49.97 4.54
5 19 3 3.1 2.14
5 19 3 3.19 2.63
-5 19 -3 4.05 1.94
-3 20 8 8.49 4.33
-3 -20 8 5.83 2.86
3 20 -8 7.19 2.83
-3 20 8 6.74 3.17
1 -12 12 3.62 2.02
1 12 12 2.14 2.69
1 12 12 4.98 1.74
-3 -8 14 14.91 4.47
-3 8 14 14.63 5.19
-3 8 14 19.23 5.36
3 -6 12 13.65 5.1
3 6 12 16.15 5.7
3 6 12 14.41 5.6
4 13 9 4.6 2.91
4 -13 9 4.55 1.98
4 13 9 5.36 2.56
7 3 7 0.23 1.1
7 -3 7 3.08 1.3
4 20 4 2.51 1.17
4 20 4 2.18 1.67
-4 20 -4 1.65 1.25
-3 23 0 41.12 6.66
3 23 0 50.55 8.92
-4 7 14 1.65 1.38
-4 7 14 0.96 0.76
-8 -11 8 0.93 1.2
-8 11 8 0.63 0.84
-8 -11 8 0.44 0.29
-8 11 8 0.46 0.93
8 11 -8 0.51 0.65
1 24 -2 1.66 1.68
-1 24 2 -0.07 1.14
-9 -8 6 3.9 2.03
9 8 -6 2.38 1.48
-9 -8 6 5.18 2.66
-9 8 6 5.73 3.09
-9 8 6 3.84 1.94
-9 5 8 10.2 3.91
-9 -5 8 9.84 2.87
-9 5 8 7.65 3.05
-9 -5 8 10.38 3.52
-5 19 7 60.89 4.06
-5 19 7 63.44 5.39
5 19 -7 55.41 4.43
-5 -19 7 62.44 4.69
-4 22 3 44.1 3.46
4 22 -3 37.84 6.66
-4 22 3 45.64 3.05
9 9 -4 28.48 4.1
-9 9 4 26.82 4.41
-9 -9 4 31.13 2.83
-9 -9 4 27.83 5.38
-9 9 4 31.34 4.26
1 23 4 2.22 1.5
-1 23 -4 0.26 0.79
-6 -10 12 0.66 1
-6 10 12 2.11 1.73
-6 -10 12 0.37 0.78
-6 10 12 0.42 0.62
3 22 3 51.38 4.67
3 22 3 35.89 7.47
-9 9 3 0.63 0.74
-9 -9 3 3.55 1.62
9 9 -3 2.48 1.14
-9 -9 3 2.46 1.14
9 9 -3 1.65 1.06
-9 9 3 1.98 1.27
2 13 11 0.84 1.37
2 -13 11 0.23 0.74
2 13 11 1.87 1.64
-2 18 10 0.82 0.91
-2 18 10 1.42 1.39
-2 18 10 0.78 1.85
-2 18 10 0.78 1.52
-2 -18 10 1.1 0.8
-9 7 7 1.03 0.82
-9 -7 7 1.5 1.71
-9 -7 7 0.72 0.53
9 7 -7 0.1 0.38
-9 7 7 1.38 1.83
7 8 6 -0.3 1.12
7 -8 6 0.7 0.91
7 8 6 0.91 0.84
-7 8 -6 0.67 1.17
9 8 -1 12.47 4.94
-9 8 1 14.21 5.23
-9 -8 1 16.31 3.77
9 8 -1 15.91 3.02
8 9 3 3.9 1.8
-8 9 -3 0.72 0.94
8 9 3 1.71 1.67
-4 22 0 4.37 1.84
4 22 0 2.12 1.36
4 22 0 1.68 1.49
-4 17 10 61.46 6.63
-4 -17 10 71.81 5.21
-4 17 10 76.69 5.47
-4 17 10 69.19 3.66
-3 19 9 0.8 1.14
-3 -19 9 0.42 0.4
-3 19 9 0.21 1.19
5 5 10 17.05 6.29
5 -5 10 13.69 5.45
5 5 10 14.76 6.61
0 19 9 18.73 7
0 -19 9 14.07 3.68
0 19 9 17.48 5.85
2 -10 12 23.14 5.69
2 10 12 19.4 7.19
2 10 12 20.1 6.46
6 19 -1 18.86 3.24
-6 19 1 16.54 5.83
6 19 -1 21.11 6.21
-8 0 -5 0.88 1.04
8 0 5 1.1 1.93
-8 4 11 6.26 2.82
-8 4 11 5.07 2.87
-8 -4 11 6.4 2.74
-8 -4 11 6.46 2.44
-9 0 9 3.27 1.99
-9 0 9 2.33 1.37
2 -5 13 21.98 4.03
2 5 13 19.37 4.28
2 5 13 24.08 5.15
-9 5 -1 2.73 1.22
9 5 1 2.17 2.14
-9 -5 -1 1.74 1.3
-7 16 6 0.66 0.59
-7 16 6 0.19 1.17
-7 -16 6 0.69 0.71
7 16 -6 0.83 0.74
-4 11 13 0.2 0.61
-4 -11 13 0.64 0.81
-4 11 13 0.69 0.74
-4 11 13 1.3 1.56
-8 1 -5 11.03 4.68
8 -1 5 12.7 4.35
8 1 5 13.55 5.53
-8 -1 -5 16.72 6.24
-1 18 10 19.31 6.37
-1 18 10 18.42 3.78
-1 18 10 16.75 3.33
-1 -18 10 16.7 4.15
-8 13 6 53.12 3.73
-8 13 6 69.87 3.87
-8 -13 6 65.03 4.05
8 13 -6 69.21 3.93
-3 21 7 0.65 1.11
3 21 -7 0.64 0.75
9 7 0 9.56 5.01
-9 7 0 9.63 5.12
-9 -7 0 9.02 4.16
-9 1 9 0.05 0.91
-9 1 9 0.33 1.21
-9 -1 9 0.44 1.44
-9 -1 9 -0.02 0.55
-5 5 14 13.16 3.91
-5 5 14 12.21 5.46
-5 -5 14 9.62 3.75
-2 12 13 2.02 1.57
-2 12 13 4.75 3.02
-2 -12 13 2.79 1.16
-2 12 13 2.64 1.06
-6 -19 4 15.73 3.26
-6 19 4 14.06 2.11
6 19 -4 11.42 5.43
-5 16 -6 22.66 3.05
5 16 6 21.37 6.79
5 16 6 20.46 6.15
-3 23 3 27.07 3.59
3 23 -3 30.27 5.95
-3 23 3 26.25 2.52
2 23 3 7.98 3.31
-2 23 -3 8.77 3.51
2 23 3 8.93 4.76
6 13 6 2.87 1.34
-6 13 -6 2.33 2.23
6 13 6 2.87 2.15
0 -6 14 35.88 6.09
0 6 14 32.71 8.55
0 -6 14 40.11 2.71
8 12 1 16.19 4.77
8 12 1 13.51 6.69
-8 12 -1 16.49 7.64
-9 9 5 12.67 1.87
-9 -9 5 4.8 2.54
-9 -9 5 7.11 2.18
-9 9 5 6.38 2.71
9 9 -5 7.42 2.74
6 0 9 1.17 0.7
1 23 -5 0.43 1.57
-1 23 5 0.39 0.62
7 4 7 12.38 5.28
7 -4 7 15.89 4.56
-8 2 -5 17.42 5.23
8 -2 5 13.36 7.22
8 2 5 14.03 6.35
-8 -2 -5 8.57 5.1
-5 -16 10 19.6 3.95
-5 16 10 26.8 3.32
-5 16 10 24.4 6.33
-5 16 10 21.21 3.27
6 -1 9 69.49 9.02
6 1 9 74.13 4.68
9 9 -2 0.75 0.75
-9 -9 2 1.35 1.68
-9 9 2 1.08 1.47
-9 -9 2 1.58 0.76
9 9 -2 1.19 0.94
-7 -17 3 43.62 3.11
7 17 -3 42.12 7.45
-7 17 3 44.43 3.64
-9 -2 9 0.15 0.62
-9 2 9 1.22 2.43
-9 2 9 1.18 1.37
-4 21 6 1.28 1.5
-4 21 6 1.25 1.73
4 21 -6 0.32 0.48
-9 0 -2 -0.25 0.84
9 0 2 1.62 1.14
-6 7 13 3.51 2.05
-6 -7 13 2.53 2.51
-6 7 13 3.18 2.12
-6 -7 13 3.27 2.17
6 8 8 9.99 4.53
6 -8 8 8.77 3.58
6 8 8 7.72 3.55
6 17 3 10.69 5.89
6 17 3 13.89 7.17
-6 17 -3 13.62 5.19
-8 7 -4 1.32 5.33
8 7 4 0.79 1.27
8 7 4 1.25 1.56
8 -7 4 1.24 1.37
-7 15 -2 1.39 1.44
7 15 2 1.14 1.54
7 15 2 2.4 1.24
2 21 6 63.76 6.34
2 21 6 65.97 6.03
1 0 14 1.08 0.94
-5 21 2 6.16 2.86
5 21 -2 9.1 4.03
-8 14 3 8.72 4.51
-8 -14 3 10.12 2.96
8 14 -3 8.06 3.83
6 11 7 29.1 4.43
6 -11 7 25.23 2.87
6 11 7 15.93 6.42
-6 11 -7 25.7 5.01
9 1 2 6.34 3.17
9 -1 2 6.85 2.92
-9 -1 -2 7.93 1.87
-9 1 -2 9.39 2.32
6 16 4 0.63 1.09
6 16 4 0.31 0.83
-6 16 -4 0.34 1.22
7 17 -2 1.74 1.42
-7 -17 2 3.22 1.84
-7 17 2 2.98 2.32
2 20 7 0.97 0.9
2 20 7 1.65 1.25
-1 8 14 1.33 1.74
-1 -8 14 4.27 1.84
-1 8 14 1.34 0.94
1 24 2 8.21 3.99
-1 24 -2 8.08 3.03
-3 12 13 0.78 0.75
-3 12 13 0.19 0.57
-3 12 13 0.57 0.93
7 14 3 34.91 2.45
7 14 3 38.71 6.93
-7 14 -3 40.64 4.37
1 -1 14 16.01 4.56
1 1 14 18.79 4.67
-8 10 9 18.95 3.2
-8 -10 9 18.43 3.61
-8 -10 9 21.13 6.5
-8 10 9 18.25 2.71
-8 8 10 2.62 1.89
-8 -8 10 3.22 0.98
-8 8 10 3.59 1.37
-8 -8 10 1.01 0.56
-3 23 -1 79.81 4.74
3 23 1 70.2 7.53
3 23 1 79.28 7.32
8 11 2 0.15 1.4
8 11 2 0.35 0.77
-8 11 -2 1.08 1.72
1 -9 13 1.98 0.99
1 9 13 0.69 1.54
1 9 13 1.1 1.27
-8 13 0 46.14 6.56
8 13 0 48.2 3.6
8 13 0 44.67 3.92
6 2 9 75.05 4.62
6 -2 9 74.55 4.09
-7 -7 12 27.74 7.82
-7 7 12 30.14 4.49
-7 7 12 27.86 3.15
-7 -7 12 30.21 3.25
4 17 7 1.45 1.42
4 17 7 1.29 1.03
-8 14 4 22.97 4.47
-8 14 4 18.03 3.54
-8 -14 4 15.36 5.44
8 14 -4 16.85 3.62
0 23 -5 1.42 1.17
0 23 5 1.58 1.49
-5 21 1 0.82 0.83
5 21 -1 -0.06 0.31
5 21 -1 1.64 1.29
-7 12 10 102.11 5.86
-7 12 10 110.53 3.56
-7 -12 10 109.32 3.73
-9 -6 8 0.84 1.27
-9 6 8 0.43 1.03
9 6 -8 0.05 0.4
-9 -6 8 0.16 0.86
-5 21 3 0.6 1.03
5 21 -3 0.02 0.82
-7 -10 11 11.01 4.52
-7 10 11 13.29 6.41
-7 -10 11 16.6 2.64
-7 10 11 12.26 4.17
-7 -17 4 3.3 1.76
7 17 -4 2.33 1.53
-7 17 4 2.07 1.36
-4 22 4 4.84 1.91
4 22 -4 5.7 2.26
-4 22 4 6.4 3.48
-3 0 15 0.43 0.66
-3 0 15 2.12 1.54
9 2 2 3.11 1.73
-9 2 -2 4.35 1.7
-9 -2 -2 4.38 1.71
9 -2 2 0.85 1.53
2 24 -1 1.97 1.85
-2 24 1 5.55 3.06
-7 11 -5 10.55 3.43
7 11 5 12.21 1.87
7 11 5 6.2 3.61
5 10 9 7.82 3.27
5 10 9 8.05 3.05
5 -10 9 7.49 3.93
-2 0 15 0.02 0.82
-2 0 15 1.02 1.08
0 16 11 206.02 8.73
0 16 11 207.8 6.28
0 -16 11 195.22 5.4
0 16 11 196.64 5.11
-4 21 -3 1.4 0.75
4 21 3 0.49 1.45
4 21 3 1.72 1.31
8 3 5 54.6 5.16
-8 3 -5 55.99 3.37
8 -3 5 47 4.53
1 24 -3 29.15 5.38
-1 24 3 27.17 6.67
4 7 11 22.39 3.44
4 -7 11 16.4 6.4
4 7 11 17.3 6.46
0 24 -3 31.62 4.76
0 24 3 41.03 3.99
3 11 11 37.68 3.37
3 11 11 38.45 6.33
3 -11 11 35.73 5.72
-8 -14 2 0.21 0.56
-8 14 2 0.84 1.79
8 14 -2 1.77 2.46
8 14 -2 0.47 0.61
1 2 14 5.32 1.98
1 -2 14 3.31 1.72
-8 5 11 13.55 2.72
-8 -5 11 13.51 4.6
-8 5 11 15.51 2.57
-8 -5 11 15.84 5.52
-9 3 9 -0.05 0.89
-9 3 9 1.62 1.3
-9 -3 9 0.01 1.23
1 -15 11 29 5.24
1 15 11 28.05 8.73
1 -15 11 18.16 5.35
1 15 11 39.27 3.92
3 7 12 1.89 1.24
3 -7 12 0.94 1.39
3 7 12 0.85 1.49
-3 1 15 39.5 3.55
-3 -1 15 47.64 6.4
-3 1 15 48.33 9.1
-3 -1 15 35.01 4.97
-3 18 10 4.84 2.07
-3 18 10 6.1 2.73
-3 -18 10 4.65 2.37
5 20 2 1.87 2.5
5 20 2 0.4 0.78
-5 20 -2 1.31 1.04
-2 1 15 22.9 6.9
-2 -1 15 17.7 6.84
-2 1 15 13.97 5.84
-2 -1 15 15.34 4.59
5 6 10 35.45 7.63
5 -6 10 26.76 5.41
5 6 10 25.28 8.94
-2 24 0 0.02 1.19
2 24 0 0.73 1.36
-5 -20 6 12.49 2.85
5 20 -6 12.18 3.67
-5 20 6 15.41 5.6
-5 20 6 15.11 1.53
-6 19 0 3.28 1.86
6 19 0 3.86 1.89
6 19 0 1.03 0.82
1 21 7 2.91 1.75
1 21 7 4.18 2.89
0 -11 13 31.91 6.75
0 11 13 29.95 8.59
0 11 13 32.16 4.88
4 22 1 5.36 2.02
-4 22 -1 3.08 1.24
4 22 1 5.43 2.99
-5 -10 13 6.03 2.64
-5 10 13 6.41 2.08
-5 -10 13 4.82 2.53
-5 10 13 11.81 3.1
-1 -12 13 36.33 2.99
-1 12 13 23.29 8.48
-1 12 13 38.49 2.97
-1 12 13 24.27 5.35
1 17 10 0.23 0.87
1 -17 10 1.01 1.16
1 17 10 -0.08 0.77
1 -17 10 1.43 1.3
3 20 6 29.26 9.94
3 20 6 43.32 3.27
-2 9 14 9.29 3.3
-2 -9 14 11.08 4.92
-2 9 14 9.56 5.43
2 -6 13 2.2 1.56
2 6 13 3.3 1.98
2 6 13 1.51 1.3
9 6 1 83.43 4.35
-9 -6 -1 81.2 3.83
-9 6 -1 83.4 8.93
-7 16 -1 7.84 3.71
7 16 1 7.63 4.16
7 16 1 6.35 2.98
-4 8 14 13.11 6.29
-4 8 14 20.34 6.56
-4 -8 14 17.78 4.76
-2 23 5 0.07 0.58
-2 23 5 0.85 1.41
2 23 -5 0.33 1.17
4 -11 10 4.21 3.04
4 11 10 5.01 2.25
4 11 10 4.78 2.09
6 3 9 1.7 1.99
6 3 9 1.36 1.12
6 -3 9 1.42 1.09
-6 18 -2 4.36 1.88
6 18 2 2.03 2
6 18 2 2.94 2.25
2 22 5 5.91 5.6
2 22 5 8.32 4.23
-3 -2 15 2.92 1.99
-3 2 15 1.21 1.1
-3 -2 15 1.94 0.81
-3 2 15 0.73 1.37
2 24 -2 22.76 3.76
-2 24 2 20.13 7.66
-6 17 8 24.51 3.59
-6 -17 8 25.03 5.3
-2 -2 15 0.43 0.7
-2 2 15 1.03 0.63
-2 -2 15 0.52 0.68
-2 2 15 0.84 1.91
-5 6 14 62.68 6.45
-5 -6 14 59.99 6.92
-5 6 14 70.37 4.46
7 5 7 14.55 5.27
7 -5 7 22.69 2.97
7 5 7 16.74 6.46
-7 17 1 6.69 3.35
7 17 -1 4.35 2.37
7 17 -1 8.39 3.05
-3 -9 14 25.92 5.82
-3 9 14 18.79 6.66
-3 9 14 21.76 6.33
9 3 2 0.48 1.1
-9 3 -2 2.29 0.71
9 -3 2 0.78 1.38
-4 14 12 6.86 3.76
-4 14 12 7.44 3.51
-4 14 12 5.57 3.36
-4 -14 12 8.43 3.69
-7 0 13 25.96 8.09
-7 0 13 24.78 6.34
9 8 -7 2.27 1.11
-9 8 7 3.89 1.38
-9 -8 7 4.68 1.44
-9 -8 7 4.03 2.1
-9 8 7 4.52 1.84
6 15 5 40.27 4.61
6 15 5 30.38 8.03
-6 15 -5 27.82 8.07
-3 22 6 8.84 5.81
-3 22 6 10.48 3.07
3 22 -6 7.39 4.06
-9 9 6 3.38 1.89
-9 -9 6 3.01 1.11
-9 9 6 3.54 1.36
-9 -9 6 0.65 1.25
9 9 -6 1.12 1.46
-6 -19 5 33.33 3.83
-6 19 5 36.6 2.47
6 19 -5 36.13 8.16
2 19 8 50.08 5.04
2 19 8 59.25 4.37
3 21 5 2 0.98
3 21 5 2.01 1.48
1 3 14 11.13 5.97
1 -3 14 22.72 2.89
1 22 6 6.21 3.62
1 22 6 7.92 3.1
0 14 12 105.72 4.9
0 14 12 98.1 5.4
0 -14 12 101.33 3.72
0 14 12 104.67 4.16
-6 16 9 1.6 0.77
-6 16 9 2 1.23
-6 -16 9 0.4 0.81
-7 -1 13 1.37 1.03
-7 1 13 -0.28 0.87
-7 1 13 0.59 0.92
-7 -1 13 1.15 0.7
-6 13 11 4.27 2.05
-6 13 11 2.12 1.53
-6 -13 11 3.94 1.55
-8 14 5 0.25 0.9
8 14 -5 0.63 1.21
-8 14 5 1.05 0.84
1 20 8 1.7 1.33
7 13 4 0.04 0.84
7 13 4 1.37 1.81
-7 13 -4 0.77 1.15
-3 23 4 14.89 5.21
-3 23 4 12.05 3.33
3 23 -4 11.56 5.16
7 -9 6 5.17 2.41
-7 9 -6 6.94 3.53
7 9 6 5.32 2.46
7 9 6 8.61 3.77
8 -4 5 -0.2 2.22
-8 4 -5 0.79 0.84
8 4 5 0 1.33
-9 9 1 1.98 2.06
9 9 -1 1.86 1.72
-9 -9 1 1.38 1.04
9 9 -1 0.5 0.76
0 -7 14 17.63 4.8
0 -7 14 9.84 4.7
0 7 14 17.96 4.74
-2 -15 12 0.75 0.78
-2 15 12 1.82 1.07
-2 15 12 -0.05 0.99
-2 15 12 0.14 0.74
3 -16 9 29.27 2.93
3 16 9 26.34 4.36
3 16 9 25.43 4.29
3 19 7 8.65 4.37
3 19 7 12.08 6.02
9 8 0 3.63 3.23
9 8 0 7.36 2.51
-9 -8 0 8.05 2.61
-9 8 0 6.92 3.24
-9 -4 9 27.33 4.4
-9 4 9 23.03 6.85
-9 -4 9 25.76 3.66
-9 4 9 24.64 5.12
5 21 0 1.31 1.37
5 21 0 1.55 1.09
-5 21 0 1.7 0.8
-9 10 4 1.4 0.96
9 10 -4 1.9 1.37
-9 10 4 0.57 0.78
-9 -10 4 1.72 1.62
-9 -10 4 1.12 1.19
0 18 10 1.27 1.82
0 18 10 1.14 0.92
0 18 10 3.4 2.07
0 -18 10 0.28 0.72
-4 -16 11 4.45 3.4
-4 16 11 8.56 3.47
-4 16 11 4.56 3.11
-4 16 11 7.82 3.97
5 21 -4 4.68 2.58
-5 21 4 6.06 3.84
9 10 -3 30.46 3.54
-9 10 3 40.99 4.22
-9 10 3 33.39 2.6
-9 -10 3 41.99 3.87
9 10 -3 35.2 3.38
-9 -10 3 35.72 5.17
3 14 10 37.66 2.84
3 -14 10 31.69 4.59
3 14 10 44.38 6.73
-3 3 15 0.27 0.6
-3 3 15 1.04 1.51
-3 -3 15 1.03 0.72
-2 24 -1 20.61 4.36
2 24 1 19.34 7.9
-7 -2 13 0.28 0.84
-7 2 13 0.38 1.33
-7 -2 13 0.42 0.88
-2 3 15 36.35 7.76
-2 -3 15 30.24 3.7
-2 3 15 33 6.32
-2 -3 15 34.57 6.3
5 13 8 1.01 1.14
5 13 8 0.98 1.22
5 -13 8 1.56 1.45
8 10 3 1.19 1.13
8 10 3 1.29 1.71
-8 10 -3 1.05 1.05
-7 15 8 5.03 3.21
7 15 -8 4.27 1.74
-7 -15 8 6.75 2.79
-7 15 8 7.7 3.6
7 17 -5 57.13 2.88
-7 -17 5 46.1 3.55
-7 17 5 52.49 3.11
-6 -18 7 41.86 2.59
-6 18 7 42.6 4.87
6 18 -7 43.41 3.7
-8 14 1 6.39 2.93
8 14 -1 6.04 3.16
8 14 -1 6 2.94
-6 -11 12 0.36 0.59
-6 11 12 1.04 2.03
-6 11 12 0.53 0.46
-6 -11 12 1.55 1.56
-2 17 11 28.51 2.55
-2 17 11 22.63 4.23
-2 17 11 22.66 3.83
-2 17 11 19.93 5.78
-2 -17 11 23.25 4.76
6 4 9 6.04 3.6
6 4 9 9.57 2.45
6 -4 9 8.33 3.76
-6 0 14 0.32 1.75
-6 0 14 0.33 0.6
-6 -8 13 48.01 7.41
-6 -8 13 57.48 3.98
-6 8 13 51.2 7.62
-6 8 13 50.12 6.44
5 15 7 7.81 4.3
5 15 7 5.75 3.1
-1 21 8 24.83 7.17
-1 21 8 32.71 9.44
-1 21 8 32.85 2.04
1 21 -8 21.69 4.44
-8 12 8 1.79 1.75
8 12 -8 1.35 1.18
-8 12 8 1.41 1.08
-8 -12 8 1.49 1.05
-5 13 12 16.92 7.58
-5 -13 12 12.97 4.85
-5 13 12 15.1 5.9
-5 13 12 20.16 3.26
8 -8 4 0.77 1.37
8 8 4 3.79 1.41
-8 8 -4 2.26 1.59
8 8 4 1.01 1.13
-6 -1 14 1.18 1.52
-6 -1 14 1.46 1.06
-6 1 14 0.35 0.93
-6 1 14 0.1 1.13
-8 13 7 2.55 1.79
-8 13 7 0.92 1.07
-8 -13 7 0.49 0.78
-8 6 11 0.42 0.8
-8 -6 11 -0.15 0.75
-8 -6 11 0.56 0.47
-9 -4 -2 12.22 3.74
-9 4 -2 13.29 4.99
9 -4 2 16.13 2.67
2 -11 12 0.62 0.84
2 11 12 0.8 0.8
2 11 12 0.27 0.9
2 16 10 0.59 1.63
2 -16 10 0.65 0.78
2 16 10 1.14 1.33
-9 7 8 3.83 2.77
9 7 -8 2.41 1.14
-9 -7 8 3.77 1.77
-9 -7 8 2.74 1.53
-9 7 8 5.02 1.99
1 -4 14 11.68 5.13
1 4 14 16.45 4.49
1 -13 12 -0.17 0.45
1 13 12 0.7 1.15
1 -13 12 0.29 0.53
1 13 12 0.45 1.38
-5 15 11 21.68 6.87
-5 15 11 24.15 6.81
-5 -15 11 23.36 4.68
-5 15 11 26.92 2.43
-4 0 15 3.06 1.82
-4 0 15 -0.04 0.31
-2 21 8 2.03 1.05
-2 21 8 1.36 0.73
2 21 -8 -0.07 0.5
-7 14 9 23.16 3.05
-7 14 9 27.6 9.15
-7 -14 9 24.44 4.17
3 23 2 6.31 3.87
3 23 2 6.87 2.69
6 9 8 4.04 1.73
6 9 8 4.8 2.36
6 -9 8 4.76 2.08
-9 10 5 13.15 3.59
9 10 -5 15.79 4.63
-9 10 5 14.55 6.4
-9 -10 5 15.11 4.29
-9 -10 5 16.96 4.42
-7 16 7 4.51 2.85
-7 -16 7 5.15 3.57
-7 16 7 6.46 2.73
7 16 -7 4.01 2.43
-1 22 7 2.43 2.73
1 22 -7 3.09 1.93
-1 22 7 4.9 2.63
-7 -8 12 15.84 5.12
-7 8 12 14.66 4.66
-7 8 12 17.02 3.14
-7 -8 12 16.37 4.62
2 24 -3 5.75 2.66
-2 24 3 10.32 3.38
-1 0 15 31.09 9.19
-1 0 15 32.39 7.28
-1 24 -3 21.92 3.77
1 24 3 20.52 4.4
-3 15 12 21.06 4.01
-3 15 12 22.16 4.62
-3 -15 12 19.2 5.32
-3 15 12 19.33 6.38
-3 15 12 21.34 7.75
-4 1 15 14.51 4.11
-4 1 15 21.23 7.21
-4 -1 15 18.85 6.4
-7 -3 13 9.67 3.05
-7 3 13 9.6 4.2
-7 3 13 9.07 2.88
-7 -3 13 9.7 4.55
-1 -9 14 80.7 7.01
-1 9 14 93.8 3.93
-1 9 14 77.57 3.83
-1 15 12 91.82 3.18
-1 15 12 89.9 4.89
-1 15 12 91.97 4.66
-1 -15 12 82.75 8.42
9 10 -2 10.35 3.87
-9 10 2 11.43 6.41
-9 -10 2 13.98 4.06
9 10 -2 11.64 2.94
-9 -10 2 13.94 3.91
-6 2 14 0.54 1.56
-6 2 14 2.02 1.37
-6 -2 14 0.54 0.63
5 7 10 11 4.75
5 -7 10 10.61 4.3
5 7 10 12.91 5.89
-8 -9 10 0.41 0.39
-8 9 10 0.34 0.68
-8 9 10 0.31 1.04
-1 1 15 5.53 3.4
-1 1 15 7.06 3.24
-1 -1 15 7.03 3.91
-1 -1 15 11.5 3.1
-1 -17 11 6.2 2.85
-1 17 11 5.26 2.13
-1 17 11 6.81 4.49
-1 17 11 9.73 3.51
4 14 9 29.7 5.77
4 -14 9 31.97 5.2
4 14 9 39.84 6.64
7 6 7 27.84 4.64
7 6 7 25.75 7.71
7 -6 7 20.49 7.52
-4 12 13 21.24 5.57
-4 -12 13 15.97 5.32
-4 12 13 13.49 5.76
-4 12 13 16.5 6.16
4 8 11 15.2 6.12
4 -8 11 13.78 6.82
4 8 11 15.46 6.59
-6 -15 10 4.65 1.99
-6 15 10 2.66 1.43
-6 15 10 4.13 2.24
3 8 12 16.83 6.76
3 -8 12 12.98 5.27
3 8 12 13.27 6.15
-3 -4 15 1.09 1.69
-3 4 15 -0.31 0.72
-3 4 15 0.13 0.71
2 -7 13 7 2.71
2 7 13 6.91 3.1
2 7 13 3.93 2.49
-9 -7 -1 2.9 1.82
-9 7 -1 1.38 1.39
9 7 1 4.16 2.12
3 22 4 7.23 3.22
3 22 4 13.51 5.34
-2 4 15 3.34 2.93
-2 -4 15 7.57 2.29
-2 4 15 4.06 2.46
-2 20 9 4.25 1.43
-2 20 9 4.77 2.45
8 -5 5 45.59 5.86
8 5 5 38.45 5.81
-8 5 -5 38.93 6.81
-1 20 9 2.28 1.84
-1 20 9 0.51 0.5
4 22 -5 5.19 3.18
-4 22 5 9.29 1.83
-4 22 5 4.72 3.23
-4 -20 8 5.47 2
-4 20 8 7.29 3.05
-4 20 8 4.27 1.88
4 20 -8 2.88 2.25
-9 5 9 1.75 1.29
-9 5 9 0.25 1.1
-9 -5 9 0.65 0.46
-9 -5 9 1.28 0.83
2 14 11 46.52 3.14
2 14 11 42.91 5.39
2 -14 11 34.26 5.59
-4 2 15 111.8 9.6
-4 2 15 117.05 3.68
-4 -2 15 117.3 4.89
1 23 5 1.26 1.24
1 23 5 0.67 1.16
-1 23 -5 1.36 1.17
-5 -7 14 5.34 2.92
-5 7 14 7.59 4
-5 7 14 5.65 2.49
-5 -7 14 7.35 2.95
-4 -19 9 10.09 4.47
-4 19 9 10.93 4.97
-4 19 9 12.04 4.71
1 10 13 55.43 6.97
1 10 13 61.54 4.03
1 -10 13 54.21 2.75
-7 17 0 6.53 2.98
7 17 0 6.97 4.97
7 17 0 6.13 2.52
4 16 8 2.61 2.74
4 16 8 2.08 1.71
-2 22 7 2.53 0.61
-2 22 7 4.05 1.34
2 22 -7 1.47 1.36
-1 2 15 2.59 1.56
-1 -2 15 2.95 1.33
-1 -2 15 5.33 2.52
-1 2 15 3.53 2.12
1 19 9 18.07 2.35
1 19 9 14 5.85
1 24 -4 1.92 1.31
-1 24 4 4.46 2.49
-2 13 13 0.64 0.77
-2 -13 13 0.77 1.04
-2 13 13 2.07 1.6
-2 13 13 3.45 1.8
6 19 1 41.45 4.33
6 19 1 34.6 2.21
-6 19 -1 38.76 4.3
2 23 4 61.59 3.67
2 23 4 60.93 3.32
-8 11 9 147.92 5.41
-8 -11 9 150.64 6.05
-8 11 9 150.75 4.82
5 19 4 3.98 1.99
-5 19 -4 4.69 1.88
5 19 4 3.58 1.85
-5 18 -5 0.66 1.32
5 18 5 1.31 1.56
5 18 5 0.95 1.36
-3 17 11 5.49 2.77
-3 -17 11 3.68 2.36
-3 17 11 9.4 4.45
-3 17 11 6.44 3.35
8 13 1 40.15 2.11
8 13 1 53.74 3.86
-8 13 -1 49.49 6.91
6 -5 9 58.99 3.46
6 5 9 59.02 7.3
6 5 9 70.27 4.56
-6 -3 14 7.04 3.37
-6 3 14 7 3.51
-6 -3 14 7.52 3.15
-6 3 14 8.97 3.58
-8 14 6 0.32 1.13
8 14 -6 0.22 0.46
-8 14 6 0.39 0.75
-8 -14 6 1.09 1.06
6 -12 7 15.11 6.39
-6 12 -7 13.7 6.41
6 12 7 17.42 8.05
6 12 7 17.78 5.8
4 22 2 9.57 5.57
-4 22 -2 11.52 3.94
4 22 2 8.08 4.44
-5 19 8 8.45 2.73
-5 19 8 9.09 3.18
-5 -19 8 7.21 2.59
-4 9 14 45.96 6.81
-4 -9 14 42.2 5.81
-4 9 14 41.16 7.06
3 18 8 63.87 3.63
3 18 8 61.07 3.92
0 24 -4 13.23 4.64
0 24 4 11.24 5.59
-5 18 9 24.28 8.15
-5 -18 9 17.66 3.19
-5 18 9 15.28 5
-7 11 11 30.92 4.77
-7 11 11 31.33 4.56
-7 -11 11 31.56 2.35
-7 -11 11 28.92 5.03
9 5 2 145.63 5.67
-9 5 -2 144.99 5.58
9 -5 2 144.26 5.52
-9 -5 -2 134.41 8.02
8 12 2 -0.11 0.66
8 12 2 0.65 1.01
5 -11 9 0.55 0.99
5 11 9 2.27 2.27
5 11 9 1.14 1.19
-7 4 13 1.8 2.34
-7 4 13 0.47 1.04
-7 -4 13 0.96 1.57
6 14 6 13.84 6.74
-6 14 -6 14.47 6.13
6 14 6 15.66 4.18
2 18 9 2.49 2.93
2 -18 9 2.13 1.55
2 -18 9 2.08 0.94
2 18 9 0.78 1.02
1 5 14 1.5 1.55
1 -5 14 1.18 1.18
-2 10 14 12.81 5.16
-2 10 14 20.1 4.88
-2 -10 14 15.81 4.48
-4 -3 15 47.63 7.79
-4 3 15 31.85 4.16
-4 3 15 47.69 7
2 24 2 2.42 1.81
-2 24 -2 0.26 0.94
-5 21 -1 1.84 1.89
5 21 1 0.16 0.89
5 21 1 1.29 0.68
-9 9 7 9.79 4.7
-9 -9 7 9.03 4.18
-9 -9 7 10.05 3.26
-9 9 7 11.76 4.87
9 9 -7 9.76 3.82
0 -8 14 84.99 2.81
0 8 14 91.9 4.01
0 -8 14 79.79 6.1
0 21 8 19.52 7.23
0 21 8 24.28 1.98
0 21 8 18.42 7.6
-3 13 13 43.23 5.45
-3 13 13 59.21 4.51
-3 -13 13 53.89 5.42
-3 13 13 47.58 6.08
0 22 -7 54.56 3.58
0 22 7 62.97 6.88
0 22 7 62.4 3.3
-5 21 5 10.56 3.65
5 21 -5 7.82 5.45
-5 21 5 12.56 5.69
-1 3 15 0.69 0.98
-1 3 15 1.34 1.29
-1 -3 15 2.69 1.29
-1 -3 15 0.98 0.93
-7 12 -5 1 1.22
7 12 5 0.6 1.33
7 12 5 1.14 0.96
4 20 5 62.27 3.31
-4 20 -5 53.74 2.67
4 20 5 59.33 3.94
-6 -19 6 46 4.1
6 19 -6 49.28 3.11
-6 19 6 42.47 4.81
-8 0 12 11.77 4.38
-8 0 12 8.6 4.67
-5 -11 13 2.33 1.47
-5 11 13 2.1 1.78
-5 11 13 0.83 2.19
-5 -11 13 0.36 1.37
3 12 11 24.68 4.16
3 12 11 26.01 3.97
3 -12 11 20.08 4.13
1 23 -6 0.8 0.61
-1 23 6 3.78 1.66
0 25 0 0.46 1.12
-3 10 14 6.11 2.52
-3 -10 14 3.58 1.6
-3 10 14 5.24 2.3
-4 21 7 24.68 4.19
-4 21 7 24.14 3.13
4 21 -7 18.59 4.97
-8 -1 12 1.02 1.12
-8 -1 12 1.53 1.55
-8 1 12 2.44 1.6
-8 1 12 -0.44 1.1
9 10 -6 2.07 1.21
-9 10 6 0.83 1.56
-9 -10 6 0.68 0.86
-9 10 6 1.22 0.99
-9 -10 6 1.41 1.12
4 19 6 0.85 1.71
-7 13 10 6.95 3.5
-7 -13 10 9.25 3.86
-7 13 10 6.49 2.54
-8 -7 11 0.38 0.88
-8 -7 11 1.49 1.64
-8 7 11 0.45 0.84
9 9 0 5.93 3.09
9 9 0 6.82 2.96
-9 -9 0 5.31 2.04
-9 9 0 6.57 2.43
-3 5 15 2.18 1.78
-3 5 15 4.5 2.33
-3 -5 15 2.28 1.24
-2 5 15 64.21 4.45
-2 -5 15 53.86 7.95
-2 5 15 60.41 6.11
-7 -17 6 17.99 4.97
7 17 -6 16.03 3.76
-7 17 6 21.83 2.32
0 -12 13 8.31 3.43
0 12 13 12.06 6
0 12 13 8.21 3.74
6 20 -2 5.54 2.42
-6 20 2 5.09 2.97
8 14 0 56.11 2.59
8 14 0 56.96 4.3
-8 14 0 55.83 2.95
-4 18 10 8.95 3.1
-4 18 10 6.25 2.59
-4 -18 10 6.86 3.18
-9 0 10 0.24 1.29
-3 23 5 48.4 2.13
3 23 -5 53.65 7.98
-3 23 5 45.54 3.06
8 15 -3 12.26 5.55
-8 15 3 16.43 2.02
-8 -15 3 13.64 4.34
-6 -20 3 0.48 0.48
6 20 -3 -0.18 0.97
4 0 12 245.12 6.08
4 0 12 230.07 7.17
7 -10 6 18.01 5.02
7 10 6 15.57 7.12
7 10 6 14.94 5.72
-7 10 -6 15.26 7.34
-9 10 1 25.73 4.37
9 10 -1 22.78 4.94
-9 -10 1 19.93 5.81
9 10 -1 24.25 6.77
4 12 10 7.57 3.14
4 -12 10 5.93 4.06
4 12 10 7.47 3.36
-6 4 14 22.09 4.29
-6 4 14 18.74 5.86
-6 -4 14 15.76 6.62
-6 -4 14 17.56 5.48
0 25 -1 105.16 8.93
0 25 1 113.9 7.57
5 20 3 2.15 1.28
-5 20 -3 5.18 2.27
5 20 3 3.86 1.58
5 17 6 8.99 3.63
-5 17 -6 6.61 3.14
5 17 6 10.72 3.67
7 15 3 17.33 7.72
-7 15 -3 19.41 4.05
7 15 3 18.14 1.87
-9 1 10 3.76 1.24
-9 -1 10 5.32 2.73
-9 -1 10 4.95 2.04
-9 1 10 5.75 2.1
-10 0 4 0.91 1.39
-10 0 4 1.17 0.79
-2 -19 10 4.3 2.9
-2 19 10 6.86 2.45
-2 19 10 6.04 3.47
-2 19 10 9.23 3.57
4 1 12 115.21 6.9
4 -1 12 104.01 6.96
4 -1 12 106.22 7.87
4 1 12 105.94 5.48
8 6 5 10.89 3.83
8 6 5 6.85 3.77
8 -6 5 7.32 4.27
-8 6 -5 10.07 4.87
-8 2 12 5.02 2.82
-8 -2 12 2.94 1.62
-8 2 12 4.16 1.85
-8 -2 12 3.5 2.24
-7 16 -2 3.76 1.79
7 16 2 5.46 2.65
7 16 2 3.29 1.88
-1 -13 13 21.05 3.89
-1 13 13 18.83 3.4
-1 13 13 20.02 6.53
-1 13 13 17.61 4.9
-9 8 8 2.44 2.24
-9 -8 8 3.74 1.41
-9 -8 8 2.29 2.03
9 8 -8 2.15 1.87
-9 8 8 4.69 2.16
-5 20 7 1.13 0.62
-5 -20 7 0.62 0.79
5 20 -7 0.66 0.4
-5 20 7 -0.12 0.85
-8 -15 4 0.98 1.42
8 15 -4 -0.06 0.67
-8 15 4 0.88 1.12
-9 -6 9 11.72 4.7
-9 6 9 11.82 3.6
-9 -6 9 12.63 3.77
-9 6 9 12.51 5.08
-10 -1 4 7.73 4.04
10 1 -4 7.18 3.45
-10 -1 4 7.61 3.53
-10 1 4 7.04 3.95
-10 1 4 8.28 3.94
-6 9 13 27.82 4.33
-6 -9 13 24.14 1.99
-6 -9 13 24.39 5.23
-6 9 13 17.62 7.41
7 7 7 2.9 2.32
7 7 7 2.65 1.42
7 -7 7 3.68 3.35
-5 -17 10 10.43 4.3
-5 17 10 14.26 5.01
-5 17 10 12.08 4.48
8 9 4 1.78 1.35
8 9 4 0.62 1.12
-8 9 -4 1.12 1.26
-4 23 2 22.28 1.85
-4 23 2 22.96 4.4
4 23 -2 19.32 5.45
3 21 -8 3.73 2.6
-3 21 8 5.1 4.12
-3 21 8 5.97 3.53
9 11 -4 24.98 6.87
-9 -11 4 24.74 3.16
-9 11 4 27.67 3.41
-9 -11 4 23.4 2.78
-9 11 4 27.45 3.96
-4 4 15 11.06 3.61
-4 -4 15 9.22 4.66
-4 4 15 8.9 4.38
-4 23 1 21.96 5.89
-4 23 1 22.26 1.55
4 23 -1 17.43 5.8
-2 24 4 3.57 1.96
4 21 4 13.67 3.79
-4 21 -4 11.43 3.87
4 21 4 10.98 5.32
-1 -19 10 10.78 2.86
-1 19 10 8.47 4.14
-1 19 10 11.24 2.92
9 11 -3 0.36 1.19
-9 -11 3 0.49 0.72
9 11 -3 0.69 0.68
-9 -11 3 0.2 0.71
-9 11 3 0.42 1
-9 11 3 0.74 0.77
10 0 -3 0.76 0.91
-10 0 3 0.74 1.07
-3 20 9 0.49 0.74
-3 20 9 0.46 0.74
5 8 10 92.97 7.93
5 8 10 84.32 5.29
5 -8 10 94.8 5.07
8 15 -2 0.96 0.79
-8 15 2 0.43 0.75
-8 -15 2 0.49 0.84
-9 -2 10 0.05 0.7
-9 -2 10 0.62 0.81
-9 2 10 -0.32 0.83
-9 2 10 0.47 1.03
-10 0 5 0.96 1.28
-1 4 15 5.9 2.88
-1 4 15 3.66 2.49
-1 -4 15 5.23 2.47
-1 -4 15 3.3 1.55
6 17 4 22.16 5.17
-6 17 -4 18.65 4.14
6 17 4 12.38 6.6
0 20 9 37.82 4.11
0 20 9 37.66 6.01
-7 -5 13 1.82 1.05
-7 5 13 0.63 0.53
-7 5 13 2.77 1.55
-7 -5 13 -0.14 0.86
4 -2 12 66.18 4.37
4 -2 12 56.35 5.01
4 2 12 57.98 5.66
-6 20 1 2.94 2.11
6 20 -1 2.72 1.39
2 23 -6 14.54 1.62
-2 23 6 6.04 4.06
-2 23 6 6.91 2.65
-8 11 -3 2.38 1.87
8 11 3 5.91 2.02
8 11 3 3.3 1.42
6 6 9 2.44 2.35
6 -6 9 0.6 1.29
6 6 9 0.7 1.25
1 25 0 12.42 5.75
-1 25 0 11.55 5.66
-10 1 3 1.25 0.67
-10 1 3 1.87 1.78
-10 -1 3 0.7 0.89
10 1 -3 1.12 1.58
-10 -1 3 2.69 2.04
0 23 6 12.56 3.79
0 23 6 14.08 5.03
0 23 -6 8.42 4.01
-7 9 12 4.38 2.63
-7 9 12 7.11 2.04
-7 -9 12 5.19 2.17
-7 -9 12 1.83 1.22
9 0 3 32.96 3.14
-9 0 -3 32.87 6.05
7 18 -3 2.35 1.84
-7 -18 3 6.78 2.39
-7 18 3 6.03 3.08
-10 -2 4 13.48 1.58
-10 -2 4 19.9 3.4
10 2 -4 10.6 4.44
-10 2 4 17.29 5.89
-10 2 4 13.44 4.92
-10 -1 5 1.76 1.33
-10 1 5 1.52 1.73
-10 1 5 1.25 0.77
-10 -1 5 0.96 1.27
2 -8 13 0.52 1.11
2 8 13 1.35 1.12
2 8 13 1.23 0.99
-9 8 -1 0.59 2.2
-9 -8 -1 0.86 0.73
9 8 1 0.47 1.18
9 8 1 0.82 1.24
3 1 13 82.68 4.24
3 -1 13 83.31 3.91
3 -1 13 81.34 4.16
3 1 13 89.12 4.78
-1 25 1 13.29 4.82
1 25 -1 10.35 5.54
-3 24 1 0.98 1.81
3 24 -1 3.34 2.76
6 18 3 79.05 3.55
-6 18 -3 69.46 3.99
6 18 3 77.43 6.62
9 1 3 2.15 1.3
-9 -1 -3 1.33 1.16
9 -1 3 3.45 2.12
-9 1 -3 3.39 1.6
1 16 11 156.76 6.5
1 -16 11 142.26 5.49
1 16 11 146.17 8.47
-9 6 -2 0.54 1.07
9 6 2 4.95 1.3
-9 -6 -2 2.77 1.5
-5 8 14 2.79 1.65
-5 8 14 2.75 1.5
-5 -8 14 2.2 1.39
-5 -8 14 2.24 1.85
7 18 -2 34.58 3.27
-7 18 2 33.98 3.56
6 10 8 7.44 2.24
6 -10 8 6.88 3.41
6 10 8 4.46 2.55
-8 3 12 7.12 2.45
-8 3 12 7 3.05
-8 -3 12 7.51 3.13
-8 -3 12 8.24 3.53
-6 20 4 3.91 1.99
-6 -20 4 3.29 1.27
6 20 -4 4.12 2.6
4 9 11 0.6 0.92
4 -9 11 0.68 1.09
4 9 11 0.88 1.31
1 -6 14 3.49 1.23
1 6 14 5.22 2.39
3 9 12 18.94 4.51
3 9 12 18.23 7.44
3 -9 12 17.8 7.11
-6 14 11 11.77 5.28
-6 14 11 9.01 3.35
-6 -14 11 10.79 3.7
-3 24 2 12.16 4.61
3 24 -2 9.04 6.09
0 17 11 1.15 1.42
0 -17 11 0.14 0.85
0 17 11 0.89 0.8
0 17 11 1.32 1.51
-6 12 12 25.33 3.61
-6 12 12 26.76 3.12
-6 -12 12 22.9 5.1
-1 10 14 3.96 2.03
-1 10 14 2.17 1.41
-1 -10 14 2.44 1.3
-10 2 3 22.07 3.57
10 2 -3 17.41 3.19
-10 -2 3 22.6 3.08
-10 -2 3 15.87 6.86
-10 2 3 12.16 5.17
7 14 4 5.61 4.36
7 14 4 2.37 1.86
-7 14 -4 0.78 1.24
4 18 7 92.82 6.33
4 18 7 104.92 5.42
10 2 -5 4.84 1.77
-10 -2 5 3.36 1.98
-10 -2 5 3.78 2.51
-10 2 5 3 1.65
-10 2 5 6.65 3.35
-8 -10 10 3.98 2.52
-8 10 10 6.81 3.45
-8 10 10 2.85 2.48
-8 -10 10 6 2.92
-4 15 12 7.06 3.6
-4 15 12 3.43 2.34
-4 15 12 3.77 2.94
-4 -15 12 5.06 4.39
4 23 -3 3.17 1.76
-4 23 3 1.97 1.69
-4 23 3 3.48 2.21
3 -2 13 25.72 5.33
3 2 13 20.07 6.55
3 23 3 23.14 9.8
3 23 3 24.25 5.74
-9 -11 5 18.2 1.9
9 11 -5 13.16 4.77
-9 11 5 10.69 4.8
-9 11 5 14.21 6.14
-9 -11 5 12.6 4.55
9 -2 3 18.42 6.3
9 2 3 22.5 4.33
-9 2 -3 18.08 6.17
-9 -2 -3 17.86 5.79
-9 3 10 8.53 2.71
-9 3 10 7.99 4.15
-9 -3 10 9.84 3.01
-9 -3 10 11.67 4.02
-7 18 4 5.86 3.09
7 18 -4 7.41 3.42
-7 -18 4 5.9 2.26
0 15 12 0.7 1.3
0 15 12 1.79 1.57
0 15 12 1.99 0.93
0 -15 12 0.54 1.64
2 -12 12 0.29 0.83
2 12 12 0.59 0.76
2 12 12 2.15 1.54
4 3 12 87.83 5.71
4 -3 12 82.69 4.97
4 3 12 71.28 6.5
0 25 2 2.12 1.84
0 25 -2 0.67 0.98
-8 15 5 3.38 1.81
8 15 -5 2.28 0.9
-8 -15 5 1.81 1.32
-8 15 5 4.48 1.96
3 24 0 18.14 8.23
-3 24 0 20.76 6.74
-4 23 0 13.62 3.92
4 23 0 11.62 2.4
4 23 0 15.61 4.26
9 11 -2 31.32 5.77
-9 -11 2 33.78 5.94
-9 11 2 32.3 2.62
9 11 -2 26.36 1.89
-9 -11 2 27.53 4.75
-6 5 14 4.24 2.53
-6 -5 14 3.03 1.94
-6 5 14 5.93 2.62
-6 -5 14 2.47 1.7
-1 25 -1 17.42 6.74
1 25 1 17.06 9.43
3 22 -7 6.54 4.36
-3 22 7 13.62 3.76
-3 22 7 13.42 3
-10 3 4 9.13 3.64
-10 3 4 7.2 3.07
-10 -3 4 9.55 4.72
-10 -3 4 7.91 4.18
10 3 -4 6.18 2.82
-3 6 15 41.1 6.39
-3 -6 15 46.25 7.54
-3 6 15 42.55 5.9
-7 17 -1 79.58 3.85
7 17 1 90.76 3.7
7 17 1 78.3 5.41
-2 -6 15 0.48 1.26
-2 6 15 0.64 0.82
5 14 8 38.82 5.09
5 14 8 42.83 3.12
5 -14 8 30.92 5.38
1 24 4 30.61 10.65
-1 24 -4 42.28 6.66
-6 16 -5 23.77 4.06
6 16 5 22.47 6.06
6 16 5 20.05 7.75
-8 -13 8 2.88 1.76
-8 13 8 4.34 2.87
8 13 -8 2.4 1
-8 13 8 2.51 1.3
5 0 11 12.65 4.35
5 0 11 14.31 2.93
1 25 -2 58.61 3.78
-1 25 2 50.75 4.9
1 18 10 10.8 5.56
1 -18 10 12.25 3.09
1 18 10 16.18 6.61
3 15 10 0.46 1.3
3 15 10 0.27 1.01
3 -15 10 1.29 1.29
10 0 -2 0.59 1.11
-10 0 2 1.41 1.33
-10 0 2 0.4 1.48
5 -1 11 1.73 1.4
5 1 11 0.47 0.69
7 0 8 0.89 1.93
-3 19 10 8.55 2.84
-3 19 10 4.83 5.25
-3 -19 10 8.99 3.52
-4 5 15 0.87 0.63
-4 -5 15 0.66 1.39
2 21 7 0.64 0.54
-5 14 12 1.02 0.83
-5 -14 12 0.05 0.78
-5 14 12 0.9 0.91
-5 14 12 0.08 1.11
1 11 13 1.62 1.56
1 -11 13 0.77 0.95
1 11 13 2.14 1.85
-10 -3 3 2.08 1.34
-10 3 3 0.19 0.86
-10 -3 3 0.23 1.23
-10 3 3 0.49 0.69
10 3 -3 0.65 0.92
-2 16 12 44.3 5.45
-2 16 12 38.73 6.26
-2 -16 12 45.57 5.47
-2 16 12 39.27 4.98
8 14 -7 1.78 0.72
-8 14 7 1.05 0.55
-8 14 7 1.37 0.8
-8 -14 7 0.9 1.07
-10 0 6 9.78 4.47
-10 0 6 11.54 3.55
-10 1 2 0.27 0.95
10 -1 -2 0.95 0.97
-10 1 2 0.52 1.48
-10 -1 2 -0.28 1.12
-10 -1 2 0.94 1.09
10 1 -2 0.52 0.92
-4 22 6 34.91 4.37
-4 22 6 37.54 6.89
4 22 -6 36.86 5.56
7 1 8 90.21 7.98
7 -1 8 101.19 5.36
-10 -3 5 42.82 2.86
-10 -3 5 39.51 5.73
10 3 -5 36.82 3.93
-10 3 5 42.34 7.59
-10 3 5 43.24 4.13
-1 5 15 0.09 0.76
-1 5 15 0.74 1.03
-1 -5 15 0.73 0.78
-1 -5 15 0.59 0.59
3 3 13 1.67 1.22
3 -3 13 2.51 1.67
3 3 13 0.47 1.3
-6 -17 9 7.66 2.7
-6 17 9 5.32 2.57
-6 -18 8 4.83 1.94
-6 18 8 3.97 3.17
8 15 -1 63.13 3.48
-8 15 1 65.7 6.52
8 15 -1 63.95 2.89
-4 10 14 38.78 8.08
-4 -10 14 45.45 5.66
-4 10 14 36.95 6.95
0 -9 14 0.43 1.07
0 9 14 1.86 1.34
0 9 14 0.64 0.82
-8 4 12 4.36 2.83
-8 4 12 6.47 2.71
-8 -4 12 3.14 2.38
-8 -4 12 6.16 2.4
7 18 -1 0.14 0.82
-7 18 1 2.03 1.22
9 -3 3 30.57 6.28
-9 -3 -3 30.27 2.41
9 3 3 20.4 8.46
-9 3 -3 30.89 2.39
2 22 6 72.79 4.49
2 22 6 74.26 7.39
-5 0 15 6.37 4.14
-10 1 6 -0.98 0.92
-10 -1 6 0.95 0.58
-10 -1 6 0.21 1.33
-10 1 6 1.21 0.88
1 14 12 7.01 5.38
1 -14 12 6.5 3.61
1 14 12 8.46 4.63
5 22 -2 51.07 3.73
-5 22 2 49.25 2.77
-8 8 11 0.49 0.84
-8 -8 11 0.28 0.56
-8 8 11 0.62 1.02
-8 -8 11 0.07 0.45
-4 13 13 3.55 2
-4 13 13 6.92 3.11
-4 13 13 4.77 2.43
-4 -13 13 3.9 1.69
-8 7 -5 22.47 9.81
8 -7 5 27.62 3.19
8 7 5 26.34 7.84
8 7 5 25.25 5.18
-7 16 8 6.16 2.96
-7 16 8 6.57 3.71
-7 -16 8 7.02 3.36
6 19 2 -0.43 1.11
-6 19 -2 0.3 1.13
-3 24 3 9.14 4.42
3 24 -3 4.81 2.89
3 17 9 3.68 3.26
3 -17 9 2.72 1.44
3 17 9 0.54 1.63
-5 -1 15 3.31 2.76
-5 1 15 2.32 1.88
8 0 6 1.44 2.06
-9 -7 9 4.98 2.21
-9 -7 9 4.38 2.06
-9 7 9 3.48 1.4
-9 7 9 5.47 2.81
5 2 11 13.06 5.23
5 2 11 13.41 5.97
5 -2 11 13.35 5.66
2 24 3 16.3 7.32
2 24 3 14.53 4.37
-2 24 -3 13.65 5.55
6 20 0 1.09 1.01
6 20 0 1.13 0.78
-6 20 0 0.4 0.48
-7 6 13 20.25 7.53
-7 6 13 29.13 5.51
-7 -6 13 20.58 5.47
-7 -6 13 18.46 6.33
0 0 15 0.35 0.78
0 0 15 0.54 1.08
-9 10 7 9.51 4.25
-9 -10 7 9.96 2.28
-9 -10 7 12.57 4.02
-9 10 7 10.45 3.87
9 10 -7 7.86 3.75
-4 17 11 46.47 5.73
-4 -17 11 45.71 5.73
-4 17 11 51.72 3.45
-4 17 11 46.25 2.69
-1 24 5 4.63 2.38
1 24 -5 3.55 1.74
-9 -4 10 7.45 2.33
-9 4 10 9.05 2.77
-9 4 10 7.8 3.01
-9 -4 10 7.26 3.85
-8 12 9 36.77 3.78
-8 12 9 23.34 4.44
-8 -12 9 34.55 6.03
8 1 6 -0.04 1.7
-8 1 -6 1.35 1.3
8 -1 6 1.61 2.12
-10 2 2 6.66 3.07
10 2 -2 8.61 3.58
-10 -2 2 6.05 3.13
-10 2 2 6.07 3.01
-10 -2 2 6.88 2.77
7 2 8 1.81 2.05
7 -2 8 2.3 1.75
-5 21 -2 1.18 0.8
5 21 2 0.99 1.55
5 21 2 1.3 0.91
5 16 7 19.48 7.58
5 16 7 20.9 9.04
4 -4 12 79.95 4.53
4 4 12 75.17 6.48
4 4 12 78.89 4.94
0 1 15 3.33 2.22
0 -1 15 5.71 2.65
0 1 15 4.19 3.36
0 -1 15 2.89 1.9
-7 15 9 6.5 5.25
-7 -15 9 7.58 3.05
-7 15 9 4.51 1.95
5 22 -1 13.23 5.82
-5 22 1 17.06 2.18
-10 2 6 16.39 2.84
-10 -2 6 20.33 3.01
10 2 -6 20.44 1.8
-10 -2 6 17.39 4.98
-10 2 6 18.34 6.4
-5 22 3 0.23 0.26
5 22 -3 0.7 0.76
-10 4 4 10.33 4.65
-10 -4 4 11.64 4.76
-10 -4 4 9.69 3.48
-10 4 4 9.06 4.01
10 4 -4 8.63 3.05
-5 21 6 -0.13 0.7
5 21 -6 1.03 1.07
-5 21 6 3.15 1.89
-2 11 14 4.97 2.64
-2 -11 14 2.6 2.11
-2 11 14 2.78 2.13
7 8 7 2.01 1.43
7 -8 7 1.42 0.96
-7 8 -7 1.26 1.13
7 8 7 0.69 1.11
4 22 3 0.7 0.69
-4 22 -3 0.23 0.43
4 22 3 0.99 1.81
6 7 9 0.53 0.79
6 -7 9 1.65 0.93
6 7 9 0.54 1.7
-5 -2 15 4.28 3.16
-5 2 15 4.93 2.53
-7 -12 11 0.68 0.89
-7 12 11 1.28 1.12
-7 12 11 0.39 0.46
9 10 0 0.74 1.15
-9 10 0 -0.12 1.14
-9 -10 0 0.71 0.56
3 21 6 1.03 1.29
3 21 6 0.89 1.08
-5 16 11 17.95 1.93
-5 -16 11 14.9 6.75
-5 16 11 15.19 2.6
-5 16 11 11.76 4.27
5 12 9 6.9 4.37
5 -12 9 9.41 4.36
5 12 9 8.43 3.76
4 -15 9 6.79 3.96
4 15 9 6.78 4.45
4 15 9 9.16 4.37
-6 -20 5 1.24 0.77
-6 20 5 3.69 1.57
2 20 8 4.93 2.43
2 20 8 4.79 3.38
-9 9 8 1.66 1.64
9 9 -8 1.18 0.8
-9 -9 8 1.65 1.47
-9 -9 8 0.69 0.79
-9 9 8 1.67 1.32
-7 -18 5 3.55 1.67
-7 18 5 2.11 1.71
7 18 -5 2.32 1.32
-8 2 -6 4.43 2.9
8 2 6 2.85 3
8 -2 6 3.25 1.99
-3 -11 14 0.57 0.58
-3 11 14 1.42 1.44
-3 11 14 0.26 0.6
4 23 -4 30.02 6.93
-4 23 4 32.04 2.13
-4 23 4 32.18 3.68
-6 13 -7 0.7 0.69
6 13 7 2.06 1.87
6 13 7 0.97 1.14
6 -13 7 0.45 1.13
3 24 1 2.83 1.87
-3 24 -1 0.8 1.25
9 7 2 5.6 2.22
-9 -7 -2 2.63 2.16
-9 7 -2 0.96 2.06
9 7 2 2.71 1.7
-3 16 12 0.75 0.57
-3 -16 12 0.22 0.95
-3 16 12 1.24 1.1
-3 16 12 1.62 1.48
-3 16 12 1.14 1.17
0 2 15 0.7 0.92
0 -2 15 0.77 0.67
0 -2 15 0.63 0.87
1 22 7 16.03 3.95
1 22 7 12.85 5.94
0 -19 10 0.5 0.99
0 19 10 2.15 1.27
0 19 10 2.04 2.16
-2 14 13 2.35 1.45
-2 14 13 2.42 1.92
-2 -14 13 4.73 2.22
-2 14 13 2.18 1.29
-2 -18 11 2.42 1.59
-2 18 11 3.6 2.24
-2 18 11 3.33 2.82
-2 18 11 4.51 2.57
-9 11 6 72.93 6.04
-9 11 6 76.58 5.83
9 11 -6 73.67 3.27
-9 -11 6 87.87 4.62
2 17 10 22.81 10.52
2 -17 10 23.57 3.54
2 17 10 28.03 7.35
2 -17 10 18.23 4.91
-1 16 12 19.2 4.71
-1 -16 12 17.81 4.48
-1 16 12 13.89 6.92
-1 16 12 19.3 5.54
-10 4 3 1.88 1.61
-10 -4 3 0.26 0.8
-10 4 3 0.81 1.38
-10 -4 3 1.01 0.85
10 4 -3 1.89 1.06
1 -7 14 3.71 1.43
1 7 14 2.4 1.65
5 3 11 55.47 6.86
5 3 11 63.81 5.74
5 -3 11 51.96 3.62
2 15 11 3.98 2.55
2 -15 11 0.92 1.12
-10 4 5 37.46 3.67
10 4 -5 33.58 2.64
-10 -4 5 34.39 2.65
-10 -4 5 31.68 7.92
-10 4 5 36.69 5.96
8 13 2 41.3 4.94
8 13 2 47.25 4.32
-8 13 -2 47.01 2.98
3 4 13 21 4.6
3 -4 13 16.04 7.4
3 4 13 20.96 4.54
0 24 5 7.26 4.43
0 24 -5 8.55 4.38
8 14 1 0.77 1.99
8 14 1 1.76 0.9
-8 14 -1 0.76 0.66
-1 25 -2 34.31 4.49
1 25 2 34.91 6.91
-5 12 13 12.21 2.66
-5 -12 13 6.12 2.78
-5 -12 13 7.3 2.67
-5 12 13 7.9 3.32
-7 -17 7 2.96 1.73
-7 17 7 3.43 2.33
7 17 -7 1.92 1.58
-6 -6 14 3.04 1.44
-6 6 14 3.03 1.96
-6 6 14 2.28 1.75
-6 -6 14 2.84 1.87
-9 -4 -3 1.05 0.82
-9 4 -3 1.11 1.43
9 4 3 0.4 0.82
9 -4 3 0.98 0.81
5 9 10 8.77 4.55
5 -9 10 10.27 3.48
5 9 10 7.02 4.99
3 20 7 161.87 4.9
3 20 7 159.63 7.06
-6 16 10 4.14 2.42
-6 -16 10 6.21 2.45
-6 16 10 5.54 3.37
-10 -3 2 4.36 2.39
-10 3 2 5.34 2.9
-10 -3 2 4.41 2.02
10 3 -2 1.91 2.08
-6 19 7 0.44 0.68
-6 -19 7 0.53 0.62
6 19 -7 0.45 0.91
7 3 8 30.5 8.33
7 -3 8 34.58 3.66
-6 -10 13 9.49 4.74
-6 -10 13 10.39 2.69
-6 10 13 12.41 5.26
-6 10 13 12.65 6.92
7 11 6 5.58 3.76
-7 11 -6 7.26 3.77
7 11 6 4.76 3.4
7 -11 6 6.44 2.58
9 11 -1 12.91 5.76
-9 -11 1 16.37 3.03
9 11 -1 5.62 3.6
1 21 8 0.45 1.31
1 21 8 1 1.53
-4 23 -1 0.5 0.5
4 23 1 1.52 0.88
4 23 1 0.08 0.69
-8 10 -4 36.4 6.23
8 10 4 25.93 2.82
8 10 4 26.61 4.58
-10 -3 6 0.54 0.84
-10 3 6 0.45 0.35
-10 3 6 1.19 0.93
-10 -3 6 0.12 1.51
10 3 -6 0.11 0.59
2 9 13 0.65 1.22
2 -9 13 0.76 0.81
9 9 1 29.9 3.1
-9 9 -1 23.62 4.44
-9 -9 -1 26.87 2.25
9 9 1 18.79 4.78
-7 13 -5 14.02 5.95
7 13 5 17.37 6.45
7 13 5 14.27 5.34
-8 -5 12 14.73 3.44
-8 -5 12 10.11 4.5
-8 5 12 8.09 3.84
-8 5 12 11.22 3.67
3 13 11 5.09 2.57
3 -13 11 4.66 1.97
3 13 11 4.89 1.86
-8 15 6 30.56 3.19
8 15 -6 26.69 3.64
-8 15 6 21.8 5.87
-8 -15 6 29.99 4.09
3 22 5 20.11 4.77
3 22 5 16.39 7.45
2 23 5 13.48 6.24
2 23 5 15.17 7.35
-5 3 15 26.67 6.2
-5 -3 15 28.25 6.03
-5 3 15 22.59 6.92
-3 -7 15 7.57 2.79
-3 7 15 8.69 4.22
-3 7 15 5.55 3.22
2 25 -1 6.17 4.05
-2 25 1 5.2 2.85
-4 6 15 67.16 5.1
-4 6 15 84.86 4.88
-4 -6 15 66.96 6.8
-2 -7 15 8.48 3.46
-2 7 15 12.27 4.8
-2 7 15 9.79 4.7
-5 -9 14 10.62 5.4
-5 -9 14 7.05 4.04
-5 9 14 11.14 5.82
-5 9 14 10.68 4.51
-1 25 3 2.59 2.78
1 25 -3 1.92 1.99
0 25 3 24.71 10.58
0 25 -3 19.69 7.06
-7 -10 12 47.43 6.39
-7 -10 12 47.84 3.81
-7 10 12 49.21 6.62
-7 10 12 47.54 3.97
-3 -14 13 11.35 5.53
-3 14 13 7.6 4.24
-3 14 13 12.13 5.09
-3 14 13 11.47 4.37
2 -1 14 3.88 3
8 -3 6 1.14 2.03
-8 3 -6 0.64 1.03
8 3 6 3.65 2.55
-1 6 15 29.19 5.95
-1 -6 15 28.18 6.05
-1 6 15 31.51 5.54
-1 18 11 1.81 2.53
-1 18 11 0.5 0.66
-1 18 11 0.21 0.69
-1 -18 11 0.13 0.56
0 -3 15 12.29 4
0 -3 15 10.77 4.2
0 3 15 16.84 6.34
6 15 6 5.15 2.9
6 15 6 4.19 2.83
-6 15 -6 5.79 2.81
0 13 13 2.3 1.29
0 13 13 1.32 1
0 13 13 2.61 1.33
0 -13 13 2 2.41
3 23 -6 1.36 0.99
-3 23 6 0.72 0.72
-3 23 6 1.46 1.48
-2 24 5 5.06 2.84
2 24 -5 3.14 2.47
4 17 8 163.19 10.97
4 17 8 158.46 7.54
-2 25 0 9.3 5.06
2 25 0 11.32 6.34
-9 -5 10 61.77 5.21
-9 5 10 65.69 4.87
-9 -5 10 66.57 5.63
-9 5 10 68.39 6.4
1 23 6 51.17 3.68
1 23 6 44.6 9.33
5 22 0 0.09 0.6
5 22 0 0.35 0.88
-5 22 0 0.57 0.72
4 5 12 0.28 1.33
4 5 12 2.28 1.42
4 -5 12 0.47 0.75
-5 22 4 28.69 6.1
5 22 -4 18.23 4.07
-5 22 4 22.54 2.92
4 13 10 3.67 1.94
4 -13 10 2.51 2.66
4 13 10 4.03 2.24
4 10 11 0.34 0.88
4 -10 11 0.46 0.98
4 10 11 1.3 1.55
-7 14 10 -0.05 1.53
-7 -14 10 0.14 0.79
-7 14 10 0.19 0.56
-10 5 4 3.33 1.56
10 5 -4 2.25 1.65
-10 -5 4 1.63 1.65
-10 -5 4 2.72 1.16
-10 0 1 0.35 0.96
10 0 -1 1.32 1.15
3 -10 12 9.04 4.3
3 10 12 15.08 7.09
3 10 12 11.53 5.4
-9 12 4 9.91 5.77
-9 12 4 5.99 2.96
9 12 -4 3.94 3.95
-9 -12 4 7.19 3.82
-9 -12 3 16.43 2.57
9 12 -3 15.24 5.82
-9 12 3 25.79 4.05
7 18 0 59.43 2.87
-7 18 0 58.66 3.24
7 18 0 56.38 3.29
2 2 14 6.37 3.56
2 -2 14 5.04 3.39
5 4 11 57.19 4.13
5 4 11 58.94 4.47
5 -4 11 41.53 7.24
-10 -1 1 42.81 6.14
10 -1 -1 35.71 6.18
10 1 -1 48.8 3.52
-10 1 1 38.86 2.57
-2 25 2 0.93 1.33
2 25 -2 0.59 1.05
-10 0 7 0.82 0.88
-10 0 7 0.33 1.84
6 11 8 0.78 1.33
6 -11 8 0.93 0.94
6 11 8 0.87 0.87
-8 12 -3 1.5 1.59
8 12 3 0.99 0.78
-10 -4 2 81.65 4.3
-10 -4 2 83.36 5.92
10 4 -2 79.2 4.61
-10 4 2 87.03 4.77
3 24 -4 4.02 2.4
-3 24 4 5.54 2.16
7 4 8 13.72 5.94
7 4 8 14.7 6.61
7 -4 8 12.46 3.54
-1 22 8 2.92 2.29
1 22 -8 0.32 0.44
-1 22 8 0.48 1.07
-1 22 8 0.4 1.19
-7 -7 13 7.67 3.84
-7 -7 13 7.94 3.92
-7 7 13 9.07 4.04
-7 7 13 8.98 3.89
-3 18 11 4.18 2.67
-3 -18 11 2.54 1.51
-3 18 11 4.6 3.16
-10 1 7 3.91 2.31
-10 -1 7 0.45 1.16
-10 -1 7 2.82 2.2
-10 1 7 1.68 1.62
-1 11 14 9.64 6.15
-1 11 14 13.22 5.53
-1 -11 14 12.78 5.09
8 15 0 3.06 1.94
-8 15 0 2.91 1.16
8 15 0 0.66 1.07
-10 5 3 61.22 3.41
-10 5 3 62.17 5.64
-10 -5 3 56.36 6.97
10 5 -3 54.78 4.68
-10 -5 3 63.39 4.55
-1 -14 13 14.09 4.61
-1 14 13 13.87 4.38
-1 14 13 17.51 3.97
-1 14 13 13.37 3.72
-10 4 6 1.55 2.08
10 4 -6 2.19 1.16
-10 4 6 2.38 1.47
-10 -4 6 1.19 1.87
-10 -4 6 2.08 1.61
-10 -5 5 1.46 0.82
-10 5 5 1.5 1.28
10 5 -5 1.31 0.82
-10 5 5 0.24 1.4
-8 -11 10 1.33 1.19
-8 11 10 1.68 1.56
-8 11 10 0.62 1.14
3 5 13 7.65 3.5
3 5 13 6.07 2.85
3 -5 13 5.67 2.64
8 -8 5 0.06 0.87
-8 8 -5 0.67 1.65
8 8 5 0.97 1.3
8 8 5 1.23 0.77
9 -5 3 4.1 2.45
9 5 3 1.78 2.27
-9 5 -3 3.46 2.11
-9 -5 -3 5.93 2.68
-5 4 15 1.95 0.93
-5 4 15 1.36 1.15
-5 -4 15 0.46 0.92
-9 8 9 17.79 7.79
-9 -8 9 24.59 4.12
-9 8 9 25.49 4.84
-9 -8 9 19.92 2.63
10 2 -1 14.4 5.45
10 -2 -1 21.38 2.54
-10 2 1 18.83 6.47
-10 -2 1 12.66 5.97
-5 19 -5 5.05 2.37
5 19 5 5.13 3.92
5 19 5 2.4 2.53
-2 22 8 3.35 2.39
2 22 -8 6.54 3.04
-2 22 8 10.46 3.54
-4 20 9 4.3 3.14
-4 20 9 2.98 1.17
-4 -20 9 2.49 1.8
-8 -9 11 0.43 0.76
-8 -9 11 0.4 1.11
-8 9 11 -0.56 0.75
-8 9 11 1.85 1.94
-8 4 -6 90.33 4.8
8 -4 6 95.64 4.95
8 4 6 76.94 9.23
-8 16 3 1.46 1.16
-8 -16 3 0.37 0.61
8 16 -3 -0.01 0.75
1 20 9 1.75 1.37
1 20 9 1.16 1.01
0 -4 15 40.62 8.72
0 4 15 45.39 2.94
0 -4 15 34.27 4.87
-10 -2 7 3.04 1.78
-10 -2 7 3.05 1.46
-10 2 7 6.79 3.23
-10 2 7 3.34 1.8
-2 21 9 0.95 2.03
-2 21 9 1.01 0.82
3 19 8 0.12 1.05
3 19 8 0.99 0.51
9 12 -5 6.47 3.56
-9 12 5 8.46 3.9
-9 -12 5 8.95 3.25
-9 12 5 9.79 2.81
-1 21 9 0.31 0.88
-1 21 9 0.97 1.52
-1 21 9 0.63 1.76
6 20 1 1.59 0.86
-6 20 -1 0.53 0.62
6 20 1 0.37 0.9
-5 19 9 26.87 2.32
-5 19 9 24.58 3.77
-5 -19 9 20.27 3.13
2 3 14 5.13 3.4
2 -3 14 4.78 1.64
-7 16 -3 2.18 1.28
7 16 3 0.65 1.2
7 16 3 2.85 1.66
-4 21 8 0.25 0.82
-4 21 8 0.25 0.68
5 20 4 4.17 2.41
-5 20 -4 3.69 2.05
5 20 4 3.41 1.93
2 25 1 0.98 1.35
-2 25 -1 0.58 0.91
-6 -13 12 2.5 1.3
-6 13 12 1.76 1.13
-6 13 12 1.3 1.59
0 10 14 50.56 3.92
0 10 14 48.87 4.25
0 -10 14 57.56 5.2
6 8 9 5.67 2.53
6 -8 9 8.35 3.36
6 8 9 13.66 2.92
-9 -12 2 65.71 3.38
-9 12 2 59.76 4.16
9 12 -2 66.7 3.71
1 23 -7 0.83 0.53
-1 23 7 0.04 0.9
2 19 9 3.31 2.67
2 19 9 5.63 3.73
2 -19 9 3.43 2.25
8 16 -4 0.1 0.72
-8 -16 4 0.64 0.48
-8 16 4 0.11 0.86
-5 20 8 67.36 3.73
-5 -20 8 55.08 3.46
-5 20 8 49.51 5.22
-8 -6 12 0.8 0.76
-8 6 12 0.44 0.91
-8 -6 12 0.3 0.42
-8 6 12 0.04 0.95
-6 -7 14 24.85 6.03
-6 7 14 21.29 6.82
-6 7 14 22.76 7.22
-6 -7 14 25.56 3.62
9 8 2 8.38 4.42
-9 -8 -2 10.29 4.51
9 8 2 10.18 5.54
-9 8 -2 8.67 4.88
2 13 12 66.27 3.98
2 -13 12 60.99 2.76
2 13 12 61.22 4.91
7 -9 7 11.35 4.46
-7 9 -7 11.23 6
7 9 7 13.81 2.76
7 9 7 18.47 3.92
7 18 -6 0.6 0.61
-7 -18 6 1.24 0.55
3 24 2 72.98 5.28
3 24 2 78.56 5.09
-4 11 14 1.82 1.26
-4 -11 14 1.31 1.22
-4 11 14 1.69 1.51
-4 11 14 0.77 1.09
7 17 2 4.64 2.44
-7 17 -2 6.66 2.71
7 17 2 4.07 1.81
-8 16 2 39.35 3.18
8 16 -2 28.58 6.1
1 8 14 63.97 3.95
1 -8 14 65.26 3.43
-10 3 1 3.72 2.56
10 3 -1 4.1 2.04
-10 -3 1 4.32 2.54
3 23 4 3.37 3.11
3 23 4 1.96 1.92
1 12 13 2.26 1.33
1 -12 13 0.63 0.75
1 -12 13 1.65 1.06
1 12 13 2.5 1.42
4 23 -5 5.26 2.1
-4 23 5 8.04 2.04
-4 23 5 7.2 4.2
5 18 6 114.4 4.45
5 18 6 119.32 5.76
-5 18 -6 105.27 3.83
-9 -6 10 1.31 0.97
-9 6 10 1.55 1.1
-9 6 10 1.41 0.96
-9 -6 10 0.76 0.8
5 5 11 2.35 1.46
5 -5 11 0.24 0.76
5 5 11 0.11 0.86
-4 7 15 7.84 2.58
-4 7 15 5.88 2.69
-4 -7 15 6.94 2.38
-6 15 11 91.33 3.33
-6 -15 11 92.21 3.91
-6 15 11 91.28 4.19
4 6 12 3.92 2.86
4 6 12 3.68 2.76
4 -6 12 6.85 2.65
-9 -11 7 6.21 2.48
9 11 -7 2.22 1.12
-9 11 7 6.83 2.66
-9 11 7 6.86 3.74
-10 3 7 11.45 4.22
-10 -3 7 8.47 4.62
-10 3 7 11.67 5
-10 -3 7 5.85 3.56
6 0 10 1.37 1.15
6 20 -6 0.28 0.47
-6 -20 6 0.42 0.71
-6 20 6 0.68 0.7
-4 19 10 40.92 2.85
-4 -19 10 17.48 4.74
-4 19 10 16.69 3.47
7 15 4 12.47 6.75
7 15 4 14.68 4.85
-7 15 -4 12.88 6.2
2 25 -3 14.62 7.19
-2 25 3 19.07 8.63
-10 5 2 7.4 3.1
-10 -5 2 8.16 3.81
10 5 -2 9.29 4.25
-10 -5 2 5.79 3.76
-10 6 4 13.06 6.05
10 6 -4 10.23 4.08
-10 -6 4 15.35 1.96
-10 6 4 12.43 5.69
-10 -6 4 11.96 4.81
2 23 -7 1.96 1.07
-2 23 7 0.35 0.67
-2 23 7 1.81 1.54
7 -5 8 15.73 5.8
7 5 8 16.92 7.08
7 5 8 13.11 4.21
-1 -7 15 4.8 1.44
-1 7 15 5.77 3.45
-1 7 15 6.18 2.56
1 25 3 1.75 3.82
-1 25 -3 2.04 1.37
6 -1 10 12.1 4.91
6 1 10 15.51 6.31
-8 14 8 4.8 1.98
-8 -14 8 4.19 2.03
-8 14 8 7.5 1.87
-5 18 10 23.38 3.96
-5 -18 10 25.41 4
-5 18 10 24.22 7.5
4 20 6 9.06 5.79
4 20 6 12.57 4.19
9 10 -8 6.9 2.69
-9 10 8 9.34 6.09
-9 -10 8 10.27 4.45
-9 -10 8 10.58 2.98
-9 10 8 10.21 4.11
-10 5 6 1.3 1.12
-10 -5 6 1.29 1.73
-10 -5 6 1.24 1.19
-10 5 6 1.3 1
-3 8 15 2.17 1.65
-3 8 15 1.94 1.32
-3 -8 15 4.71 2.34
-4 21 -5 2.63 2.96
4 21 5 7.45 2.49
4 21 5 3.91 3.2
-1 24 -5 0.35 1.38
1 24 5 0.59 1.24
-2 8 15 4.78 2.25
-2 8 15 2.33 2.31
-2 -8 15 5.86 3.01
2 -4 14 0.23 0.74
2 4 14 1.72 1.55
-5 5 15 1.43 1.37
-5 5 15 0.87 0.79
9 11 0 54.78 3.86
-9 -11 0 51.51 3.69
-9 11 0 58.86 3.38
9 11 0 52.21 2.97
1 17 11 73.74 5.63
1 -17 11 75.04 3.19
1 17 11 74.18 7.35
4 23 2 11.23 2.58
4 23 2 12.69 5.57
-4 -16 12 49.96 5.19
-4 16 12 61.87 4.74
-4 16 12 46.52 6.29
-4 16 12 50.75 6.81
-6 18 -4 0.76 1.41
6 18 4 -0.06 1.36
6 18 4 0.47 1.02
5 22 1 11.54 5.31
-5 22 -1 8.43 3.96
5 15 8 12.24 4.93
5 -15 8 11.28 4.18
5 15 8 14.46 6.41
-9 0 11 3.05 1.76
-9 0 11 3.36 1.83
2 24 4 9.54 3.87
2 24 4 5.2 2.68
0 22 8 0.43 1.26
0 22 8 0.48 0.48
0 22 8 0.34 1.13
-10 6 3 2.98 1.32
-10 6 3 1.22 1.15
-10 -6 3 1.43 1.07
10 6 -3 1.51 1.6
-10 -6 3 3.03 1.99
5 10 10 1.97 1.39
5 -10 10 1.88 1.72
5 22 -5 27.11 5.13
-5 22 5 38.17 4.16
-5 22 5 35.42 2.54
8 5 6 5.14 3.53
8 -5 6 3.34 2.13
8 5 6 4.6 4.53
-8 5 -6 3.87 2.51
0 16 12 68.54 5.37
0 16 12 73.26 5.04
0 16 12 69.16 4.88
0 -16 12 76.87 3.27
-10 -6 5 30.54 3.72
-10 6 5 41.54 5.96
-10 -6 5 34.29 3.4
-10 6 5 24.19 7.36
-2 12 14 1.07 1.16
-2 -12 14 0.62 0.96
-2 12 14 0.76 0.94
-2 20 10 63.97 3.68
-2 20 10 58.69 6.37
-2 20 10 50.27 9.16
3 6 13 5.98 4.46
3 -6 13 14.87 3.18
3 6 13 6.66 3.53
0 -5 15 2.21 1.24
0 5 15 2.26 1.78
0 5 15 3.58 1.94
6 2 10 12.4 4.44
6 -2 10 8.98 4.35
6 2 10 10.12 4.93
6 21 -2 13.38 6.3
-6 21 2 16.47 5.26
-8 -16 5 0.4 0.58
-8 16 5 0.27 0.77
8 16 -5 0.69 0.83
-8 16 5 0.18 0.31
-9 -1 11 19.66 6.39
-9 -1 11 13.23 6.53
-9 1 11 15.8 5.72
-9 1 11 16.18 6.33
-7 0 14 2.51 1.71
-7 0 14 1.5 0.97
9 -6 3 10.52 5.18
9 6 3 10.48 4
-9 6 -3 7.13 4.83
-9 -6 -3 11.8 4.36
-8 -13 9 8.07 2.66
-8 13 9 4.78 2.02
-8 13 9 10.82 5.16
-4 22 7 27.21 2.36
4 22 -7 21.31 3.89
-4 22 7 23.44 6.5
6 21 -3 33.17 7.4
-6 21 3 42.53 2.44
2 10 13 2.14 1.4
2 -10 13 1.78 1.21
9 10 1 96.59 4.16
-9 -10 -1 97.1 5.61
-9 10 -1 94.19 5.58
9 10 1 98.14 5.71
-1 25 4 65.25 4.83
1 25 -4 61.77 3.85
-4 -14 13 12.02 3.11
-4 14 13 7.11 3.78
-4 14 13 11.59 3.52
-4 14 13 10.63 5.07
-7 1 14 1.68 1.71
-7 1 14 1.72 1.54
-7 -1 14 1.04 1.03
-7 -1 14 0.9 1.41
-5 -15 12 4.69 3.04
-5 15 12 6.32 3.11
-5 15 12 6.99 4.98
-5 15 12 8.03 3.75
-5 21 -3 0.75 0.6
5 21 3 0.68 1.82
5 21 3 0.23 0.77
-8 15 7 18.11 2.87
8 15 -7 9.41 3.6
-8 15 7 23.32 2.86
-8 -15 7 14.71 4.77
0 23 -7 15.36 5.32
0 23 7 16.57 6.71
0 23 7 13.83 5.77
7 19 -3 6.41 3.38
-7 -19 3 5.56 3.37
-7 19 3 4.62 2.85
-10 -4 1 52.66 3
-10 4 1 46.73 6.07
10 4 -1 48.15 3.15
-3 -12 14 1.12 0.88
-3 12 14 1.37 1.21
-3 12 14 1.56 1.64
-6 11 13 -0.01 1.31
-6 -11 13 0.71 0.93
-6 11 13 0.92 0.77
-6 -11 13 0.19 0.5
-5 -10 14 0.85 0.96
-5 10 14 2.19 2.11
-5 10 14 1.96 1.23
-5 -10 14 1.68 0.91
0 18 11 2.06 2.53
0 -18 11 1.81 1.24
0 18 11 3.52 1.94
0 18 11 2.76 1.72
-1 20 10 1.12 1.24
-1 20 10 0.96 0.76
-1 20 10 0.75 0.52
6 19 3 4.91 3.01
-6 19 -3 8.47 4.74
6 19 3 6.8 4.77
9 12 -6 25.38 2.12
-9 12 6 18.94 3.28
-9 -12 6 17.54 4.84
-9 12 6 20.51 3.2
-8 11 -4 1.9 1.49
8 11 4 1.23 1.21
8 11 4 3.27 1.76
-5 21 7 3.06 2.35
-5 21 7 3.78 1.71
3 16 10 71.2 4.63
3 -16 10 57.81 6.46
3 16 10 74.36 3.91
-7 13 11 2.93 1.83
-7 13 11 2.85 2.27
-7 -13 11 1.47 0.98
1 -15 12 87.59 4.8
1 15 12 93.71 5.28
1 15 12 108.79 4.79
5 13 9 6.64 5.93
5 13 9 9.43 4.13
5 -13 9 9.94 3.96
-7 8 13 6.44 3.99
-7 -8 13 5.64 3.69
-7 8 13 8.48 3.59
-7 -8 13 7.03 2.67
-10 -4 7 0.07 1.2
-10 4 7 1.05 0.58
-10 -4 7 0.3 0.99
-10 4 7 1.92 1.45
-7 19 2 2.79 1.84
7 19 -2 3.28 1.86
6 17 5 0.58 1.71
-6 17 -5 1.17 0.93
6 17 5 0.76 0.97
-9 2 11 28.94 5.51
-9 -2 11 28.4 5.49
-9 2 11 16.14 6.79
-9 -2 11 20.45 7.27
0 25 4 1.56 1.87
0 25 -4 2.75 1.71
8 16 -1 1.07 1.52
-8 16 1 1.61 1.65
7 12 6 4.52 2.22
7 -12 6 4.15 1.73
7 12 6 3.31 2.18
-7 12 -6 3.34 3.45
9 12 -1 0.45 0.97
9 12 -1 0.49 0.49
-9 -12 1 0.52 0.89
-7 -2 14 6.38 3.54
-7 2 14 8.67 3.08
-7 -2 14 7.27 3.33
-7 2 14 7.02 3.83
-3 21 9 1.46 1.38
-3 21 9 0.72 0.83
-7 11 12 9.39 4.82
-7 11 12 8.06 4.01
-7 -11 12 4.73 2.89
-7 -11 12 8.92 2.84
4 19 7 3.55 1.59
4 19 7 2.09 2.39
-1 24 6 8.85 5.36
1 24 -6 4.54 1.72
9 0 4 1.18 1.15
0 21 9 10.25 4
0 21 9 6.05 2.57
0 21 9 7.99 3.4
-2 25 -2 6.33 3.05
2 25 2 7.23 2.68
7 18 1 3.23 1.05
-7 18 -1 2.89 1.54
7 18 1 4.85 1.96
6 3 10 0.68 0.84
6 -3 10 2.72 1.5
6 3 10 0.6 1.16
-6 21 1 20.96 4.24
6 21 -1 21.34 5.11
-5 13 13 30.85 2.1
-5 13 13 26.36 4.76
-5 -13 13 25.12 5.35
-5 13 13 23.29 3.04
-2 17 12 14.49 6.42
-2 17 12 10.77 4.95
-2 17 12 12.14 4.74
-2 -17 12 12.33 4.02
10 0 0 4.65 1.97
-10 0 0 3.2 2.5
-3 22 8 78.36 3.08
-3 22 8 68.73 12.59
7 19 -4 1.55 1.89
-7 -19 4 1.44 0.87
-7 19 4 3.64 3.07
6 14 7 1.09 1.32
6 14 7 2.01 1.21
6 -14 7 1.32 2.73
9 1 4 7.03 3.8
-9 1 -4 8.37 3.06
9 -1 4 7.73 3.83
-9 -1 -4 7.13 2.96
8 9 5 7.63 4.45
8 9 5 10.68 6.14
-8 9 -5 11.5 7.23
8 -9 5 14.73 3.49
4 22 4 0.45 1.01
4 22 4 0.26 1.27
-4 22 -4 0.03 0.56
-8 -7 12 1.14 1.32
-8 7 12 1.92 1.84
-8 -7 12 0.82 1.12
-8 7 12 2.17 2.16
4 11 11 94.05 5.37
4 -11 11 96.92 4.61
4 11 11 93.31 5.44
10 1 0 -0.07 0.61
10 -1 0 1.72 1.18
-10 -1 0 0 0.87
-10 1 0 -0.09 0.89
-3 24 5 17.28 5.24
3 24 -5 12.67 6.82
-9 -9 9 4.43 2.22
-9 9 9 7.17 2.85
-9 -9 9 3.4 2.11
-9 9 9 2.73 2.31
5 -6 11 1.37 1.45
5 6 11 0.57 0.99
3 -11 12 2.76 1.19
3 11 12 5.02 2.57
-8 14 -2 1 0.74
8 14 2 0.43 0.29
8 14 2 0.4 1.21
-7 16 9 2.17 1.16
-7 -16 9 1.8 1.84
-7 16 9 3.74 1.36
6 21 -4 1.37 1.47
-6 21 4 1.75 0.96
-10 0 8 33.73 6.24
-10 0 8 28.48 4.33
-7 17 8 0.51 0.72
-7 -17 8 0.51 0.68
2 5 14 1.02 0.96
2 -5 14 -0.01 0.42
-10 -6 2 0.28 0.69
-10 6 2 1.37 1.41
-10 -6 2 0.25 0.75
10 6 -2 0.63 0.42
7 -6 8 9.21 1.88
7 6 8 1.21 1.61
7 6 8 2.08 1.84
-6 -18 9 55.85 3.03
-6 18 9 59.01 3.45
-9 3 11 0.61 1.08
-9 3 11 0.41 1.04
-9 -3 11 0.43 0.76
-2 -15 13 7.78 4.47
-2 15 13 6.36 3.06
-2 15 13 6.73 4.74
-2 15 13 11.95 5.2
-10 1 8 15.51 5.66
-10 1 8 9 4.19
-10 -1 8 10.42 5.82
-10 -1 8 11.46 4.27
-6 8 14 0.9 1.01
-6 8 14 1.15 1.3
-6 -8 14 0.29 0.53
-6 -8 14 0.41 0.73
1 19 10 0.56 1.01
1 19 10 0.09 1.38
-10 6 6 10.1 4.46
-10 6 6 8.98 3.7
-10 -6 6 9.77 3.24
-10 -6 6 6.99 3.07
-9 7 10 9.56 3.27
-9 -7 10 6.34 2.56
-9 7 10 7.22 3.52
-9 -7 10 4.54 1.54
0 26 0 48.63 4.67
9 -2 4 13.51 5.44
-9 -2 -4 18.09 3.27
-9 2 -4 15.54 4.69
9 2 4 18.96 2.79
7 14 5 1.43 1.73
-7 14 -5 0.11 0.71
7 14 5 0.67 1.05
5 17 7 4.76 2.12
5 17 7 3.88 2.37
4 16 9 14.39 5.72
4 -16 9 13.45 5.18
4 16 9 12.75 6.48
4 7 12 2.12 1.74
4 7 12 2.88 2.43
4 -7 12 7.34 2.34
-7 -3 14 3.58 2.49
-7 3 14 2.19 1.69
-7 3 14 2.61 2.01
-7 -3 14 2.91 2.07
8 15 1 0.37 1.64
8 15 1 3.48 1.27
-8 15 -1 3.8 3.21
6 9 9 0.36 0.73
6 9 9 0.92 1.59
6 -9 9 0.64 1.41
3 14 11 5.58 3.6
3 -14 11 5.82 3.37
3 14 11 9.55 4.82
3 18 9 2.15 2.75
3 18 9 5.48 1.82
3 -18 9 4.41 2.15
-10 2 0 1.48 1.73
10 -2 0 0.21 0.96
10 2 0 -0.09 0.92
-5 -6 15 9.39 4.33
-5 6 15 8.15 3.17
-5 6 15 8.29 5.9
4 24 -2 14.5 5.35
-4 24 2 17.14 6.37
-8 10 11 18.86 3.09
-8 -10 11 15.53 4.72
-8 -10 11 13.89 5.27
-8 10 11 15.12 5.68
10 7 -4 0.7 0.78
-10 -7 4 0.92 0.82
-10 7 4 0.31 0.95
-10 -7 4 0.78 0.71
-10 7 4 0.69 0.78
-6 -19 8 53.08 3.81
-6 19 8 55.15 4.88
-4 24 1 15.06 6.69
4 24 -1 11.97 5.18
6 12 8 2.91 3.25
6 -12 8 6.84 2.08
6 12 8 5.43 3.61
-4 18 11 1.66 1.18
-4 18 11 1.34 1.43
-4 -18 11 0.34 0.68
7 19 -1 1.06 0.85
-7 19 1 -0.04 0.86
-8 0 13 0.74 0.92
8 -6 6 8.68 3.98
8 6 6 10 3.93
-8 6 -6 11.35 5.62
8 6 6 8.7 3.72
-10 5 1 18.8 6.72
-10 -5 1 19.65 5.05
10 5 -1 20.19 3.89
2 -16 11 48.96 3.92
2 16 11 59.07 4.55
2 16 11 50.46 7.46
-3 20 10 5.38 3.04
-3 20 10 4.84 2.77
9 9 2 27.64 4.86
-9 9 -2 29.57 4.13
-9 -9 -2 31.32 2.67
9 9 2 24.32 4.44
-5 17 11 66.14 3.91
-5 17 11 78.71 7.16
-5 -17 11 68.51 4.52
-9 13 4 0.35 1
-9 -13 4 0.13 0.87
9 13 -4 0.45 0.73
-9 13 4 0.26 1
-4 -8 15 0.7 1.34
-4 8 15 0.04 0.48
-4 8 15 -0.33 0.94
0 -6 15 11.33 5.68
0 6 15 8.87 3.81
0 -6 15 10.04 2.18
0 6 15 9.06 5.88
0 14 13 1.85 1.21
0 14 13 2.08 1.72
0 -14 13 3.31 1.07
0 14 13 3.34 1.88
-2 24 6 0.93 0.91
2 24 -6 0.96 0.77
-10 2 8 4.51 2.58
-10 -2 8 6.63 3
-10 2 8 5.96 2.99
-10 -2 8 7.54 3.47
-1 -12 14 2.58 1.82
-1 12 14 2.81 1.4
-1 12 14 4.6 2.4
-1 12 14 1.43 1.54
-9 13 3 48.3 3
9 13 -3 39.1 3
-9 -13 3 41.91 2.77
0 24 6 17.31 7.93
0 24 -6 19.67 4.46
0 26 1 0.41 1.38
0 26 -1 0.05 1.34
-8 1 13 3.82 2.17
-8 -1 13 4.3 2.25
-8 -1 13 5.87 2.94
-8 1 13 5.08 3.68
1 9 14 5.96 3.72
1 9 14 8.85 5.51
1 -9 14 7.82 3.16
-8 12 10 18.85 8.05
-8 -12 10 22.75 3.07
-8 12 10 21.42 2.96
-1 8 15 21.24 7.14
-1 8 15 33.12 5.53
-1 -8 15 24.59 9.2
-3 17 12 35.52 3.52
-3 17 12 28 4.49
-3 -17 12 25.24 2.62
-3 17 12 26.22 2.46
-3 17 12 30.54 6.16
-10 -5 7 80.72 5.66
-10 5 7 78.23 3.41
-10 -5 7 77.7 4.33
-10 5 7 76.76 4.57
2 25 -4 15.61 2.71
-2 25 4 4.3 5.92
6 4 10 30.89 5.54
6 -4 10 27.55 6.56
6 4 10 30.77 8.24
-8 13 -3 0.86 0.82
8 13 3 1.45 0.95
8 13 3 1.75 2.46
4 -14 10 41.86 4.8
4 14 10 41.39 7.86
4 14 10 45.06 6.23
-1 17 12 7.05 2.56
-1 17 12 5.09 3.21
-1 -17 12 5.94 3.92
-1 17 12 5.08 2.02
-10 -7 3 1.85 1.22
-10 -7 3 0.95 0.85
-10 7 3 0.92 0.84
-10 7 3 1.68 1.14
10 7 -3 1.15 0.96
-3 15 13 0.67 0.77
-3 15 13 0.35 0.85
-3 15 13 0.41 0.69
-3 -15 13 0.36 0.78
-10 -7 5 4.61 1.84
-10 -7 5 4.14 1.43
-10 7 5 3.23 2.3
10 7 -5 5.01 1.81
-10 7 5 5.41 2.6
3 7 13 5.9 2.55
3 -7 13 7.13 3.43
3 7 13 5.35 2.91
7 10 7 57.92 3.53
7 10 7 50.31 7.68
-7 10 -7 56.73 4.16
7 -10 7 56.32 5.73
0 -11 14 7.59 2.75
0 11 14 8.82 3.04
0 11 14 11.24 3.61
0 11 14 7.51 3.13
6 20 2 8.89 4.69
-6 20 -2 21.09 3.03
6 20 2 14.95 7.14
-9 7 -3 1.83 1.09
9 7 3 3.05 2.12
-9 -7 -3 1.7 0.96
9 -7 3 3.3 2.87
9 7 3 2.17 1.91
-8 16 6 0.01 0.44
-8 -16 6 1.89 0.88
8 16 -6 0.58 0.65
-6 17 10 9.77 5.4
-6 -17 10 7.97 3.66
-6 0 15 0.02 0.64
-6 0 15 0.53 1
-9 -3 -4 6.29 3.39
9 3 4 8.62 4.39
9 -3 4 6.7 4
-9 3 -4 5.95 2.83
-3 25 1 38.52 8.67
3 25 -1 32.54 6.9
2 18 10 1.58 1.33
2 -18 10 1.21 0.89
2 -18 10 0.14 0.71
2 18 10 0.82 1.51
-7 15 10 4.23 2.58
-7 -15 10 3.5 2.03
-7 15 10 2.81 2.11
-8 2 13 5.22 2.66
-8 -2 13 4.43 3.55
-8 2 13 5.53 2.55
-8 -2 13 6.74 4.09
10 -3 0 7.38 4.48
-10 -3 0 7.94 3.99
10 3 0 5.59 3.04
-10 3 0 8.62 3.67
-3 23 7 67.14 4.72
3 23 -7 63.21 4.06
-3 23 7 69.41 2.95
-6 -1 15 0.58 1.5
-6 1 15 -0.27 1.06
-6 1 15 0.69 0.78
-6 -1 15 1.22 1.83
-3 -9 15 42.09 7.25
-3 9 15 48.57 2.94
-3 9 15 32.05 7.43
4 24 -3 1.62 2.09
-4 24 3 1.48 2.76
-2 9 15 20.21 4.82
-2 9 15 20.55 5.6
-2 -9 15 20.79 8.26
6 16 6 1.17 1.49
-6 16 -6 1.59 1.01
2 22 7 26.35 4.23
2 22 7 25.99 6.51
-9 -4 11 33.06 3.24
-9 4 11 25.1 4.59
-9 -4 11 20.86 7.77
-9 4 11 29.84 6.6
3 24 3 1.1 1.17
3 24 3 0.44 0.62
1 26 0 17.37 3.48
-1 26 0 15.91 6.76
-7 18 7 5.82 2.77
7 18 -7 0.31 0.83
-3 0 16 0.34 1.3
-7 19 5 49.41 4.68
-7 -19 5 46.88 3.04
7 19 -5 45.75 2.52
1 0 15 4.35 1.76
-6 21 0 0.5 0.68
6 21 0 0.43 0.91
1 26 -1 52.16 4.3
-1 26 1 43.79 3.71
3 25 -2 5.72 3.61
-3 25 2 6.07 4.02
-2 -19 11 0.22 0.53
-2 19 11 1.37 1.23
-2 19 11 0.33 0.68
-2 19 11 -0.01 1.08
-7 -4 14 1.46 1.04
-7 4 14 1.76 1.44
-7 4 14 4.48 1.58
-7 -4 14 1.95 1.38
9 13 -5 0.72 0.8
-9 13 5 0.84 1.33
-9 -13 5 1.34 0.86
-10 -3 8 28.47 3.02
-10 3 8 29.21 4.31
-10 -3 8 20.48 6.58
-10 3 8 27.03 4.4
4 24 0 23.61 8.2
4 24 0 20.64 4.14
-3 1 16 45.11 6.27
-3 -1 16 48.11 6.8
-3 1 16 57.07 7.4
1 -1 15 0.02 0.72
1 1 15 0.26 0.59
-4 12 14 1.08 1.78
-4 12 14 0.72 0.62
-4 -12 14 0.63 0.59
-4 12 14 0.78 0.93
-9 13 2 2.53 1.49
9 13 -2 3.86 1.4
-1 15 13 0.81 0.74
-1 15 13 2.37 1.85
-1 15 13 0.21 0.84
-1 -15 13 2.35 1.93
-6 -2 15 12.19 4.64
-6 2 15 11.06 4.65
-6 -2 15 10.05 4.78
-6 2 15 10.01 4.45
4 23 -6 14.9 4.07
-4 23 6 32.55 2.14
-4 23 6 15.28 6.02
-2 0 16 155.42 4.62
-2 0 16 164.45 5.87
0 20 10 16.29 8.06
0 20 10 22.59 7.9
-3 25 0 2.01 1.52
3 25 0 4.93 2.89
2 23 6 20.42 9.11
2 23 6 19.58 7.32
2 6 14 2.49 1.45
2 -6 14 2.66 1.22
-9 11 8 3.58 2.03
-9 -11 8 2.96 1.76
9 11 -8 2.5 1.28
-9 11 8 1.17 1.68
-5 23 2 0.41 0.94
5 22 2 73.05 5.57
-5 22 -2 73.83 3.31
5 22 2 74.64 3.23
-9 -12 7 0.83 0.95
-9 12 7 1.58 0.67
-9 12 7 0.9 0.81
9 12 -7 1.31 0.83
-2 -1 16 -0.12 1.14
-2 1 16 1.51 1.23
-2 -1 16 0.78 1
-2 1 16 0.66 1.55
-1 25 -4 36.03 8.29
1 25 4 45.68 7.01
-6 14 12 8.39 3.38
-6 -14 12 4.93 2.4
-6 14 12 5.75 2.92
8 16 0 25.18 5.48
8 16 0 33.93 2.22
-8 16 0 36.98 2.48
6 21 -5 5.47 3.51
-6 21 5 7.08 2.68
4 18 8 3.91 2.46
2 21 8 2.3 1.69
2 21 8 0.37 1.29
-3 -2 16 46.32 9.39
-3 2 16 58.08 4.62
-3 2 16 45.67 4.19
-8 -3 13 1.46 1.68
-8 3 13 0.77 1.11
-8 3 13 2.1 0.97
-8 -3 13 4.65 2.01
1 2 15 5.65 3.63
1 -2 15 3.84 3.58
6 20 -7 3.63 2.21
-6 -20 7 3.53 2.31
-6 20 7 6.29 4.43
5 7 11 1 1.18
5 -7 11 0.4 1.35
5 22 -6 5.9 3.61
-5 22 6 4.38 3.02
-5 22 6 7.1 3.01
-7 -9 13 1.98 1.24
-7 9 13 2.47 2.03
-7 9 13 2.08 1.39
-7 -9 13 1.29 1.28
0 26 2 43.35 8.82
0 26 -2 46.9 3.54
1 -13 13 17.02 3.53
1 13 13 12.55 4.76
1 13 13 11.96 5.44
-1 26 -1 57.13 4.32
1 26 1 56.71 3.88
5 -11 10 42.05 5.02
5 11 10 43.38 5.13
5 11 10 42.42 9.62
3 22 6 3.7 2.2
3 22 6 2.33 2.1
10 7 -2 4.21 2.21
-10 -7 2 8.94 3.68
-10 7 2 8.06 3.73
-10 -7 2 8.01 3.41
7 7 8 14.88 4.1
7 -7 8 12.95 5.34
7 7 8 10.78 4.78
9 4 4 1.92 1.13
-9 4 -4 1.13 0.84
-9 -4 -4 2.83 1.7
9 -4 4 0.45 1.58
-1 19 11 0.85 0.91
-1 19 11 1.61 1.83
-1 -19 11 0.69 0.67
2 14 12 2.01 2.09
2 14 12 3.81 1.49
2 -14 12 1.78 1.08
6 5 10 1.07 2
6 5 10 1.77 1.94
6 -5 10 0.11 1.34
-8 8 12 21.68 3.79
-8 -8 12 15.27 3.54
-8 8 12 13.28 4.57
-8 -8 12 16.92 7.11
5 23 -1 110.35 4.64
-5 23 1 94.96 4.49
10 -4 0 0.35 1.12
-10 -4 0 1.26 0.99
-10 4 0 0.67 1.03
10 4 0 0.37 1.07
-10 7 6 1.59 1.25
-10 -7 6 2.01 1.73
-10 -7 6 1.56 2.12
-10 7 6 2.7 1.38
3 21 7 4 1.63
3 21 7 4.02 2.27
-5 23 3 96.12 4.03
5 23 -3 95.54 3.99
9 12 0 4.22 2.15
-9 12 0 3.01 1.7
9 12 0 2.9 2.22
-9 -12 0 2.29 1.16
-10 -6 1 14.86 4.35
-10 6 1 18.27 3.53
10 6 -1 10.05 4.51
2 -11 13 15.03 3.3
2 11 13 18.04 4.18
2 11 13 17.3 7.69
-9 -11 -1 24.93 2.62
9 11 1 24.03 5.21
-9 11 -1 22.52 8.05
9 11 1 27.84 2.9
-2 -2 16 2.59 1.69
-2 2 16 1.39 1.45
-2 2 16 0.16 1.21
4 23 3 0.9 0.68
4 23 3 0.66 1.09
-1 26 2 9.45 5.21
1 26 -2 7.86 4.58
-5 7 15 50.14 8.52
-5 7 15 62.98 4.02
-5 -7 15 56.4 7.44
-6 3 15 6 2.84
-6 -3 15 4.67 3.56
-6 3 15 5.13 2.5
-6 -3 15 6.14 3.11
-10 6 7 2.26 1.77
-10 -6 7 1.96 1.03
-10 6 7 2.37 1.32
-10 -6 7 1.66 2.07
-5 -11 14 5 3.43
-5 11 14 9.55 3.75
-5 11 14 6.4 2.81
-5 -11 14 6.1 2.11
-10 4 8 36.86 5.58
-10 -4 8 37.35 6.34
-10 -4 8 33.47 4.95
-10 4 8 33.87 2.97
7 19 0 34.91 2.44
-7 19 0 37.94 3.25
3 25 -3 6.77 4.29
-3 25 3 9.08 4.85
-9 -8 10 0.54 0.96
-9 8 10 0.74 0.92
-9 8 10 0.58 0.7
8 -7 6 11.54 4.45
8 7 6 12.57 5.99
-8 7 -6 11.72 6.46
8 7 6 17.6 3.09
-8 -17 3 21.31 3.87
8 17 -3 12.06 6.37
-8 17 3 21.85 3.5
-2 25 -3 8 4.08
2 25 3 4.37 3.08
4 8 12 17.26 7.97
0 7 15 9.25 4.84
0 -7 15 8.11 4.7
1 23 7 5.69 3.12
1 23 7 6.67 3.26
-9 5 11 0.13 1.03
-9 5 11 0.72 0.54
1 22 8 6.44 2.31
1 22 8 3.78 2.11
-1 25 5 0.64 1.33
1 25 -5 0.07 0.94
-3 3 16 0.53 0.89
-3 -3 16 0.26 1.36
-3 3 16 0.69 0.92
7 17 3 5.69 4.11
7 17 3 4.67 2.97
-10 -8 4 1.87 1.55
-10 -8 4 0.81 1.31
-10 8 4 1.53 1.29
-10 8 4 0.06 0.88
-2 13 14 0.76 0.52
-2 -13 14 0.74 0.75
-6 -12 13 17.14 6.55
-6 12 13 23.1 4.14
-3 -19 11 6 3.17
8 10 5 8.26 3.82
-7 -5 14 34.6 5.13
-7 5 14 38.36 5.68
8 12 4 0.82 0.81
-8 -17 4 2.08 1.33
