#------------------------------------------------------------------------------
#$Date: 2019-05-13 10:49:06 +0300 (Mon, 13 May 2019) $
#$Revision: 215051 $
#$URL: file:///home/coder/svn-repositories/cod/cif/1/54/74/1547435.cif $
#------------------------------------------------------------------------------
#
# This file is available in the Crystallography Open Database (COD),
# http://www.crystallography.net/
#
# All data on this site have been placed in the public domain by the
# contributors.
#
data_1547435
loop_
_publ_author_name
'Anuradha R. Pallipurath'
'Jonathan M. Skelton'
'Mark R. Warren'
'Naghmeh Kamali'
'Patrick McArdle'
'Andrea Erxleben'
_publ_section_title
;
 Sulfamerazine: Understanding the Influence of Slip Planes in the
 Polymorphic Phase Transformation through X-Ray Crystallographic Studies
 and ab Initio Lattice Dynamics
;
_journal_name_full               'Molecular Pharmaceutics'
_journal_page_first              3735
_journal_page_last               3748
_journal_paper_doi               10.1021/acs.molpharmaceut.5b00504
_journal_volume                  12
_journal_year                    2015
_chemical_formula_moiety         'C11 H12 N4 O2 S'
_chemical_formula_sum            'C11 H12 N4 O2 S'
_chemical_formula_weight         264.303
_chemical_name_common            Sulfamerazine
_chemical_name_systematic        4-amino-N-(4-methylpyrimidin-2-yl)
_space_group_crystal_system      orthorhombic
_space_group_IT_number           61
_space_group_name_Hall           '-P 2ac 2ab'
_space_group_name_H-M_alt        'P b c a'
_symmetry_space_group_name_Hall  '-P 2ac 2ab'
_symmetry_space_group_name_H-M   'P b c a'
_atom_sites_solution_hydrogens   mixed
_cell_angle_alpha                90
_cell_angle_beta                 90
_cell_angle_gamma                90
_cell_formula_units_Z            8
_cell_length_a                   9.1349(3)
_cell_length_b                   11.6868(4)
_cell_length_c                   22.8660(8)
_cell_measurement_reflns_used    5634
_cell_measurement_temperature    298.0(1)
_cell_measurement_theta_max      28.1230
_cell_measurement_theta_min      3.9060
_cell_volume                     2441.12(14)
_computing_cell_refinement
;
'Tue Dec 02 18:02:36 2014'
;
_computing_data_collection
;
'Tue Dec 02 18:02:36 2014'
;
_computing_data_reduction
;
'Tue Dec 02 18:02:36 2014'
;
_computing_molecular_graphics    OSCAIL
_computing_structure_refinement  'SHELXL-2014/7 (Sheldrick, 2014)'
_computing_structure_solution    SHELXT
_diffrn_ambient_temperature      298.0(1)
_diffrn_detector_area_resol_mean 16.1048
_diffrn_measured_fraction_theta_full 0.999
_diffrn_measured_fraction_theta_max 0.919
_diffrn_measurement_device_type  'Xcalibur, Sapphire3'
_diffrn_measurement_method       '\w scans'
_diffrn_radiation_type           MoK\a
_diffrn_radiation_wavelength     0.71073
_diffrn_reflns_av_R_equivalents  0.0289
_diffrn_reflns_av_unetI/netI     0.0222
_diffrn_reflns_Laue_measured_fraction_full 0.999
_diffrn_reflns_Laue_measured_fraction_max 0.919
_diffrn_reflns_limit_h_max       11
_diffrn_reflns_limit_h_min       -12
_diffrn_reflns_limit_k_max       14
_diffrn_reflns_limit_k_min       -15
_diffrn_reflns_limit_l_max       29
_diffrn_reflns_limit_l_min       -30
_diffrn_reflns_number            21559
_diffrn_reflns_point_group_measured_fraction_full 0.999
_diffrn_reflns_point_group_measured_fraction_max 0.919
_diffrn_reflns_theta_full        25.242
_diffrn_reflns_theta_max         29.194
_diffrn_reflns_theta_min         2.967
_diffrn_source                   'Enhance (Mo) X-ray Source'
_exptl_absorpt_coefficient_mu    0.265
_exptl_absorpt_correction_T_max  1.00000
_exptl_absorpt_correction_T_min  0.93549
_exptl_absorpt_correction_type   multi-scan
_exptl_absorpt_process_details
;
crysalispro, agilent technologies,
version 1.171.37.31 (release 14-01-2014 crysalis171 .net)
(compiled jan 14 2014,18:38:05)
empirical absorption correction using spherical harmonics,
 implemented in scale3 abspack scaling algorithm.
;
_exptl_crystal_colour            Colourless
_exptl_crystal_density_diffrn    1.438
_exptl_crystal_description       Parallelepiped
_exptl_crystal_F_000             1104
_exptl_crystal_size_max          0.50
_exptl_crystal_size_mid          0.40
_exptl_crystal_size_min          0.20
_refine_diff_density_max         0.226
_refine_diff_density_min         -0.379
_refine_diff_density_rms         0.050
_refine_ls_extinction_coef       .
_refine_ls_extinction_method     none
_refine_ls_goodness_of_fit_ref   1.016
_refine_ls_hydrogen_treatment    mixed
_refine_ls_matrix_type           full
_refine_ls_number_parameters     176
_refine_ls_number_reflns         3040
_refine_ls_number_restraints     0
_refine_ls_restrained_S_all      1.016
_refine_ls_R_factor_all          0.0597
_refine_ls_R_factor_gt           0.0430
_refine_ls_shift/su_max          0.001
_refine_ls_shift/su_mean         0.000
_refine_ls_structure_factor_coef Fsqd
_refine_ls_weighting_details
'w=1/[\s^2^(Fo^2^)+(0.0463P)^2^+1.4827P] where P=(Fo^2^+2Fc^2^)/3'
_refine_ls_weighting_scheme      calc
_refine_ls_wR_factor_gt          0.1031
_refine_ls_wR_factor_ref         0.1136
_reflns_Friedel_coverage         0.000
_reflns_Friedel_fraction_full    .
_reflns_Friedel_fraction_max     .
_reflns_number_gt                2374
_reflns_number_total             3040
_reflns_threshold_expression     'I > 2\s(I)'
_cod_data_source_file            Exp_Form-II2FInHouse_Form-II_RT.cif
_cod_data_source_block           smz_fiirt_a
_cod_depositor_comments
;

2019-03-25
Changing wrong Z value
                 miguel
;
_cod_original_formula_units_Z            6
_cod_database_code               1547435
_shelx_space_group_comment
;
The symmetry employed for this shelxl refinement is uniquely defined
by the following loop, which should always be used as a source of
symmetry information in preference to the above space-group names.
They are only intended as comments.
;
_shelx_estimated_absorpt_t_min   0.879
_shelx_estimated_absorpt_t_max   0.949
_shelxl_version_number           2014/6
_shelx_res_file
;
TITL smz_fiirt_a.res in Pbca
REM Old TITL smz_fiiRT in Pbca
REM SHELXT solution in Pbca
REM R1 0.127,  Rweak 0.397,  Alpha 0.027,  Orientation as input
REM Formula found by SHELXT:  C12 N3 O2 S
CELL  0.71073   9.1349  11.6868  22.8660   90.000   90.000   90.000
ZERR    6.000   0.0003   0.0004   0.0008    0.000    0.000    0.000
REM SG 61 8 8 Pbca P21/b21/c21/a PGmmm Orthorhombic
LATT 1
REM SG  ASUN  1  .5 .5 .5
REM SG  ORGN  at Inv.cen.
SYMM 0.5-X,-Y,0.5+Z
SYMM -X,0.5+Y,0.5-Z
SYMM 0.5+X,0.5-Y,-Z
SFAC C H N O S
UNIT 88 96  32  16  8
FMAP 2
PLAN -32
BOND $H
L.S. 12
SIZE    0.50  0.40  0.20
ACTA
CONF
HTAB
LIST 4
WGHT    0.046300    1.482700
FVAR       0.56597
S1    5    0.333236    0.346840    0.389817    11.00000    0.03641    0.03908 =
         0.03298   -0.00329   -0.00036   -0.00455
O2    4    0.198608    0.397301    0.409537    11.00000    0.03338    0.06253 =
         0.03944   -0.00258    0.00091   -0.00328
O1    4    0.342889    0.225433    0.386282    11.00000    0.06568    0.03782 =
         0.04461   -0.00191   -0.00028   -0.01031
N4    3    0.665957    0.426424    0.485397    11.00000    0.03498    0.04775 =
         0.03844   -0.00343   -0.00326    0.00358
N3    3    0.655459    0.286506    0.409347    11.00000    0.04261    0.04301 =
         0.04082   -0.00198    0.00348    0.00669
N2    3    0.451536    0.394658    0.437712    11.00000    0.03466    0.04390 =
         0.03915   -0.01293   -0.00328    0.00481
N1    3    0.457643    0.533172    0.155677    11.00000    0.07803    0.05330 =
         0.04645    0.00789    0.01991    0.00360
C1    1    0.377056    0.404631    0.322034    11.00000    0.03751    0.03799 =
         0.03438   -0.00346    0.00057   -0.00196
C2    1    0.449565    0.339173    0.280656    11.00000    0.06327    0.04232 =
         0.04579    0.00122    0.01040    0.01274
AFIX  43
H2    2    0.478674    0.265031    0.289768    11.00000   -1.30000
AFIX   0
C3    1    0.478630    0.383394    0.226206    11.00000    0.06665    0.04717 =
         0.04502   -0.00247    0.01889    0.01070
AFIX  43
H3    2    0.528773    0.339070    0.199008    11.00000   -1.30000
AFIX   0
C4    1    0.434210    0.493601    0.211045    11.00000    0.04654    0.04408 =
         0.03997    0.00013    0.00691   -0.00579
C5    1    0.362034    0.559009    0.253559    11.00000    0.05614    0.03341 =
         0.04763    0.00085    0.00826    0.00018
AFIX  43
H5    2    0.332190    0.633052    0.244620    11.00000   -1.30000
AFIX   0
C6    1    0.334713    0.515240    0.308321    11.00000    0.04616    0.03568 =
         0.04217   -0.00736    0.00884   -0.00183
AFIX  43
H6    2    0.287698    0.560014    0.336209    11.00000   -1.30000
AFIX   0
C7    1    0.597853    0.366617    0.443529    11.00000    0.03626    0.03638 =
         0.03217    0.00253    0.00190    0.00119
C8    1    0.807169    0.401529    0.492641    11.00000    0.03987    0.06083 =
         0.04363    0.00043   -0.00530    0.00227
AFIX  43
H8    2    0.859618    0.441013    0.521065    11.00000   -1.30000
AFIX   0
C9    1    0.878142    0.320936    0.460330    11.00000    0.03521    0.06245 =
         0.04962    0.00956    0.00200    0.00874
AFIX  43
H9    2    0.976811    0.305242    0.466336    11.00000   -1.30000
AFIX   0
C10   1    0.798573    0.263452    0.418413    11.00000    0.04398    0.04549 =
         0.04512    0.00846    0.01101    0.00931
C11   1    0.865544    0.170939    0.382117    11.00000    0.06145    0.06372 =
         0.07691   -0.00725    0.01613    0.01988
AFIX 137
H11A  2    0.820400    0.099062    0.391488    11.00000   -1.30000
H11B  2    0.968574    0.166680    0.390101    11.00000   -1.30000
H11C  2    0.850691    0.187628    0.341439    11.00000   -1.30000
AFIX   0
H1N2  2    0.418982    0.444654    0.459075    11.00000    0.05077
H1N1  2    0.515719    0.493895    0.134817    11.00000    0.06650
H2N1  2    0.448096    0.602577    0.148448    11.00000    0.07836
HKLF 4
  
REM  smz_fiirt_a.res in Pbca
REM R1 =  0.0430 for    2374 Fo > 4sig(Fo)  and  0.0597 for all    3040 data
REM    176 parameters refined using      0 restraints
  
END
  
WGHT      0.0459      0.9887
  
REM Instructions for potential hydrogen bonds
EQIV $1 -x+1/2, y+1/2, z
HTAB C6 O1_$1
EQIV $2 -x+1, -y+1, -z+1
HTAB C8 O2_$2
EQIV $3 x+1, y, z
HTAB C9 O2_$3
HTAB N2 N4_$2
EQIV $4 x+1/2, y, -z+1/2
HTAB N1 O2_$4
EQIV $5 -x+1, y+1/2, -z+1/2
HTAB N1 O1_$5
HTAB N1 N3_$5
  
REM Highest difference peak  0.226,  deepest hole -0.379,  1-sigma level  0.050
Q1    1   0.3701  0.3787  0.3497  11.00000  0.05    0.23
Q2    1   0.3731  0.4571  0.3195  11.00000  0.05    0.21
Q3    1   0.4533  0.4454  0.2202  11.00000  0.05    0.18
Q4    1   0.3425  0.4433  0.3111  11.00000  0.05    0.17
Q5    1   0.3432  0.1938  0.3610  11.00000  0.05    0.16
Q6    1   0.6359  0.3464  0.4136  11.00000  0.05    0.16
Q7    1   0.3916  0.5168  0.2284  11.00000  0.05    0.16
Q8    1   0.3827  0.3655  0.2992  11.00000  0.05    0.16
Q9    1   0.8515  0.4772  0.5194  11.00000  0.05    0.15
Q10   1   0.8374  0.4087  0.5494  11.00000  0.05    0.15
Q11   1   0.8358  0.2665  0.4499  11.00000  0.05    0.15
Q12   1   0.8579  0.4490  0.5492  11.00000  0.05    0.15
Q13   1   0.4760  0.3813  0.3171  11.00000  0.05    0.14
Q14   1   0.3215  0.5157  0.2779  11.00000  0.05    0.14
Q15   1   0.8570  0.3239  0.4320  11.00000  0.05    0.14
Q16   1   0.7080  0.2754  0.4186  11.00000  0.05    0.14
Q17   1   0.5232  0.6016  0.1685  11.00000  0.05    0.14
Q18   1   0.2636  0.3761  0.4221  11.00000  0.05    0.13
Q19   1   0.4151  0.5003  0.1835  11.00000  0.05    0.13
Q20   1   0.3848  0.5392  0.2851  11.00000  0.05    0.13
Q21   1   0.3681  0.2713  0.3979  11.00000  0.05    0.13
Q22   1   0.5938  0.5278  0.1519  11.00000  0.05    0.13
Q23   1   0.6347  0.3820  0.4693  11.00000  0.05    0.13
Q24   1   0.6500  0.4179  0.4510  11.00000  0.05    0.13
Q25   1   0.4881  0.5222  0.1921  11.00000  0.05    0.13
Q26   1   0.8276  0.6188  0.4783  11.00000  0.05    0.13
Q27   1   0.2470  0.3826  0.4030  11.00000  0.05    0.13
Q28   1   0.5498  0.2952  0.3053  11.00000  0.05    0.13
Q29   1   0.2843  0.2249  0.3534  11.00000  0.05    0.13
Q30   1   0.2070  0.5182  0.3441  11.00000  0.05    0.13
Q31   1   0.4332  0.3578  0.2502  11.00000  0.05    0.12
Q32   1   0.9165  0.6238  0.4727  11.00000  0.05    0.12
;
_shelx_res_checksum              89694
_shelx_hkl_file
;
   0   0  -4 2414.35   18.48
   0   0   5    5.83    2.64
   0   0  -5    4.93    1.56
   0   0   6 7077.27   39.30
   0   0  -6 7267.18   39.55
   0   0  -7   15.78    2.84
   0   0   7   21.90    4.74
   0   0   8  958.28   16.89
   0   0  -8  999.94   16.93
   0   0  -9    7.41    2.51
   0   0  -9    8.94    2.53
   0   0   9   14.12    4.86
   0   0  10 4964.15   42.86
   0   0 -10 4982.81   45.65
   0   0 -10 5196.81   42.98
   0   0  11  122.25    8.10
   0   0 -11  152.03    9.78
   0   0  12   16.30    3.20
   0   0 -12    7.21    2.42
   0   0 -13    0.76    3.73
   0   0  13    2.07    2.64
   0   0 -14  829.96   22.01
   0   0 -15   19.43    4.67
   0   0 -16   24.15    4.42
   0   0 -17    9.68    5.56
   0   0 -18 1285.76   32.01
   0   0 -19   43.54    7.09
   0   0 -20  112.88   10.23
   0   0 -21    2.25    3.90
   0   0 -22  154.02   12.76
   0   0 -23    3.34    3.82
   0   0 -24   72.49    9.53
   0   0 -25    2.45    3.57
   0   0 -26   22.92    6.41
   0   0 -27    1.62    4.17
   0   0 -28   40.48    8.11
   0   0 -29    9.85    5.49
   0   1   4    0.18    0.72
   0   1   4    1.37    1.21
   0   1  -4    1.15    1.05
   0  -1  -4    0.79    0.86
   0  -1  -4    1.03    0.94
   0  -1   4    0.28    0.94
   0  -1   5    0.88    1.26
   0  -1  -5    1.51    1.14
   0   1  -5    1.36    1.25
   0  -1  -5    0.33    1.13
   0   1   5    0.51    1.41
   0   1   5    0.18    0.96
   0  -1  -6    1.55    1.61
   0  -1  -6    0.32    0.96
   0  -1   6    2.27    1.53
   0   1  -6    1.69    1.17
   0   1   6    0.95    1.66
   0  -1  -6    0.54    1.28
   0  -1   7    0.31    1.59
   0  -1  -7    0.27    1.01
   0  -1  -7    1.10    1.35
   0  -1  -7    1.07    1.16
   0   1   7   -0.63    2.02
   0   1  -7    2.20    1.69
   0  -1  -8    1.66    1.21
   0  -1   8    0.05    1.53
   0   1  -8    0.88    1.41
   0  -1  -8    1.49    1.20
   0  -1  -8    0.23    1.56
   0  -1  -9    0.42    1.69
   0  -1   9    0.53    1.69
   0   1  -9    0.05    1.02
   0  -1  -9    1.19    1.03
   0  -1  10   -1.24    1.88
   0  -1 -10    0.18    1.79
   0  -1 -10    0.92    1.11
   0  -1 -11   -1.17    2.01
   0  -1 -11    1.06    1.45
   0  -1  11    0.29    1.98
   0  -1 -12    0.58    1.99
   0  -1  12    1.20    2.06
   0  -1 -13   -1.72    2.42
   0  -1  13   -0.08    2.19
   0  -1  14   -1.86    2.50
   0  -1 -14    0.63    2.50
   0  -1  15   -1.89    2.68
   0  -1 -15   -0.57    2.43
   0   1 -16   -3.16    3.64
   0  -1  16    1.18    2.57
   0  -1 -16   -0.22    2.75
   0  -1  17   -0.57    2.45
   0  -1 -17   -0.93    2.53
   0   1 -17   -5.31    4.36
   0  -1 -18   -1.54    2.88
   0  -1  18    4.71    3.76
   0   1 -18   -6.88    4.30
   0   1 -19   -1.96    3.06
   0  -1 -19   -0.21    2.98
   0  -1 -20   -3.24    3.30
   0   1 -20   -1.88    3.06
   0  -1 -21   -0.99    3.05
   0   1 -21   -1.22    3.44
   0  -1 -22    3.00    3.27
   0   1 -22   -3.52    3.81
   0   1 -23   -6.39    4.95
   0  -1 -23    1.79    3.36
   0   1 -24   -3.50    4.35
   0  -1 -24    3.67    3.84
   0   1 -25   -0.92    3.22
   0  -1 -25   -2.40    3.11
   0   1 -26   -3.33    3.49
   0  -1 -26   -2.58    3.92
   0   1 -27   -5.79    4.72
   0  -1 -27   -1.44    2.99
   0  -1 -28   -5.65    4.14
   0   1 -28    5.93    4.65
   0  -1 -29   -5.74    4.67
   0   1 -29    0.82    4.07
   0  -2   0    2.83    0.89
   0   2   0    1.62    1.02
   0  -2   1 8403.05   35.68
   0  -2  -1 8161.76   31.09
   0   2   2 4364.02   29.28
   0  -2  -2 4287.63   22.90
   0   2  -2 4493.19   28.35
   0  -2   2 4526.84   28.19
   0  -2  -2 4427.88   28.98
   0  -2  -2 4393.28   29.41
   0   2   2 4263.78   28.76
   0   2   3 9800.93   46.02
   0   2   3 9999.00   46.05
   0  -2   3 9769.34   44.58
   0  -2  -3 9851.04   45.10
   0  -2  -3 9766.68   37.26
   0   2   3 9617.97   37.18
   0  -2  -3 9726.66   46.33
   0  -2  -3 9843.28   27.97
   0   2   4 8128.54   37.20
   0  -2  -4 8210.31   37.16
   0   2   4 7989.43   44.58
   0  -2  -4 8250.87   45.20
   0   2  -4 8323.85   44.42
   0  -2  -4 8152.14   43.15
   0  -2   4 8098.14   43.98
   0  -2  -5 8170.91   40.50
   0   2   5 8012.55   47.57
   0   2  -5 8447.83   47.63
   0  -2  -5 8199.28   45.44
   0  -2   5 8348.14   47.20
   0   2   5 8130.54   40.31
   0  -2  -5 8166.37   48.10
   0  -2   5 7985.72   28.57
   0  -2  -6 7690.25   46.08
   0  -2  -6 7881.67   50.08
   0  -2   6 7787.29   48.69
   0   2   6 7833.58   49.95
   0  -2   6 7819.55   27.72
   0  -2  -6 7932.37   43.25
   0   2   6 7887.18   42.99
   0   2  -6 8031.17   49.04
   0  -2  -7   59.54    4.20
   0  -2  -7   55.86    4.54
   0   2   7   55.43    3.99
   0   2   7   59.34    5.03
   0   2  -7   62.06    4.66
   0  -2   7   55.37    4.77
   0   2  -8  570.16   14.41
   0   2   8  564.81   13.24
   0  -2   8  538.71   14.56
   0  -2  -8  572.85   13.30
   0   2   8  582.88   15.31
   0  -2  -8  569.29   14.95
   0  -2  -9 1661.62   24.14
   0  -2   9 1714.17   26.43
   0   2   9 1778.45   28.04
   0  -2  -9 1705.09   22.03
   0  -2 -10  913.33   19.14
   0  -2  10  892.29   20.18
   0   2  10  934.83   21.38
   0   2 -10  885.73   10.36
   0  -2 -10  901.13   16.92
   0  -2  11 1275.31   25.17
   0   2 -11 1243.65   12.83
   0  -2 -11 1285.20   23.73
   0   2  11 1309.63   26.49
   0  -2 -11 1290.62   21.28
   0  -2 -12  578.06   14.93
   0  -2 -12  609.73   16.99
   0   2 -12  559.28    8.89
   0  -2  12  536.98   17.26
   0  -2  13  135.95    9.35
   0   2 -13  135.89    4.61
   0  -2 -13  153.36    9.36
   0  -2  14  587.82   19.07
   0  -2 -14  608.74   18.50
   0   2 -14  580.34    9.70
   0   2 -15   10.86    1.56
   0  -2  15   18.78    4.48
   0  -2 -15   19.44    4.92
   0  -2  16   59.91    7.34
   0  -2 -16   63.90    6.93
   0   2 -16   58.44    3.30
   0   2 -17  431.18    8.97
   0  -2 -17  454.70   18.07
   0  -2  17  462.10   18.75
   0  -2 -18  205.38   13.13
   0  -2  18  203.41   13.04
   0  -2  19  568.27   22.35
   0   2 -19  559.06   22.95
   0  -2 -19  591.38   22.04
   0  -2  20   72.29    8.62
   0  -2 -20   71.04    9.05
   0   2 -20   72.85    9.38
   0  -2  21   72.10    8.71
   0   2 -21   72.35    9.11
   0  -2 -21   78.76    9.03
   0   2 -22    7.25    3.87
   0  -2 -22   10.88    4.85
   0   2 -23  355.57   20.40
   0  -2 -23  330.30   18.78
   0   2 -24   13.37    5.61
   0  -2 -24   10.04    3.82
   0  -2 -24   15.99    5.48
   0  -2 -25    5.63    4.11
   0   2 -25    8.51    4.60
   0  -2 -26   61.48    9.05
   0   2 -26   65.31    9.80
   0   2 -27    3.08    3.55
   0  -2 -27    6.39    3.90
   0  -2 -28    6.03    3.91
   0   2 -28    8.69    5.05
   0  -2 -29   51.33    9.12
   0  -2 -30   -2.63    3.84
   0   3   0   -2.59    2.32
   0   3   0    0.43    0.98
   0  -3   0    0.26    1.28
   0  -3   1    1.97    1.52
   0  -3  -1   -1.36    1.54
   0   3  -1    8.80    2.79
   0   3   1    2.71    2.16
   0  -3  -1    0.25    1.16
   0   3   1    7.31    2.31
   0   3  -1    1.49    1.36
   0   3  -2    0.55    1.23
   0   3   2    0.86    1.14
   0  -3  -2    0.09    0.64
   0  -3  -2    0.46    1.67
   0   3   2   -2.11    2.40
   0  -3  -2    1.20    1.19
   0  -3   2   -0.77    1.62
   0   3   2    4.62    2.20
   0   3   3    0.00    1.10
   0   3   3    0.27    0.68
   0  -3  -3   -1.09    0.90
   0  -3  -3    1.06    1.42
   0  -3   3   -2.05    1.62
   0   3   3    1.93    1.78
   0  -3  -3    0.51    1.13
   0   3  -3   -0.54    1.38
   0   3   3   -1.09    1.75
   0  -3  -4    4.85    2.64
   0  -3  -4   -0.23    1.58
   0  -3   4    3.52    2.17
   0   3   4   -0.56    1.61
   0  -3  -4    0.46    1.36
   0   3  -4    0.23    1.50
   0  -3  -4    0.69    0.82
   0   3   4    2.41    1.19
   0   3   4   -0.67    2.13
   0  -3  -5    0.63    1.34
   0   3  -5   -1.88    1.39
   0   3   5   -2.29    2.08
   0  -3  -5    1.39    1.15
   0   3   5   -1.42    2.22
   0  -3  -5   -0.39    2.10
   0  -3   5   -0.85    1.98
   0   3   5   -0.02    1.04
   0  -3  -5    2.30    1.43
   0   3   6    2.49    1.24
   0  -3  -6    6.42    2.31
   0  -3  -6    1.40    0.96
   0  -3  -6    1.85    1.94
   0  -3  -6    4.33    1.81
   0   3   6    1.86    2.02
   0   3  -6    1.63    1.55
   0  -3   6   -0.16    1.84
   0  -3   7    0.76    0.93
   0  -3   7   -0.56    1.94
   0   3   7    1.71    2.30
   0  -3  -7    1.36    2.19
   0  -3  -7    0.67    1.44
   0   3   7    0.29    1.06
   0   3   8   -0.20    0.99
   0  -3   8    0.74    2.37
   0  -3  -8   -1.79    1.88
   0   3   8    0.27    2.06
   0  -3  -8   -1.90    2.18
   0  -3   8    1.40    0.74
   0  -3  -9   -1.30    2.52
   0  -3   9   -1.80    2.86
   0   3   9   -0.19    1.04
   0   3   9   -1.39    2.06
   0  -3  -9   -0.59    1.95
   0   3  10    1.71    2.60
   0  -3 -10   -1.04    2.23
   0  -3 -10   -0.88    2.46
   0  -3  10   -1.42    2.62
   0  -3  11    0.24    2.30
   0  -3 -11   -2.73    2.92
   0  -3 -11   -2.45    2.35
   0   3  11   -1.21    2.44
   0  -3 -11   -0.76    1.17
   0  -3 -12   -2.62    2.63
   0  -3  12   -1.09    3.05
   0   3  12   -0.95    2.39
   0  -3 -12   -0.89    1.10
   0  -3 -12   -2.23    2.88
   0  -3 -13   -4.72    2.98
   0  -3  13    1.34    2.71
   0  -3 -13   -1.31    2.80
   0   3  13    0.94    2.13
   0  -3 -14   -2.63    2.71
   0  -3 -14   -0.51    3.02
   0   3  14    1.71    2.52
   0  -3  14    0.20    2.40
   0  -3 -15   -3.09    3.40
   0  -3  15    3.06    2.76
   0  -3 -15   -2.20    3.10
   0  -3 -16   -2.56    3.32
   0  -3  16   -0.71    3.29
   0  -3 -16   -2.78    3.59
   0  -3 -17   -6.82    4.19
   0  -3  17    0.52    2.95
   0  -3 -17   -4.19    3.23
   0  -3 -18   -3.19    4.13
   0  -3 -18   -6.29    3.70
   0  -3  18   -2.00    3.06
   0  -3 -19   -6.09    3.87
   0  -3  19   -2.21    3.13
   0  -3 -19   -1.22    2.78
   0  -3 -20    2.93    2.76
   0  -3  20   -2.07    3.73
   0  -3 -20   -4.37    3.96
   0  -3 -21   -5.73    3.65
   0  -3  21    3.07    3.56
   0   3 -21   -2.93    4.44
   0  -3 -21    0.55    2.98
   0  -3 -22    0.47    2.77
   0  -3 -22   -2.76    3.81
   0  -3  22   -1.06    3.31
   0   3 -22    3.53    3.25
   0  -3 -23   -1.04    3.55
   0   3 -23    5.68    4.15
   0  -3 -23   -2.39    3.27
   0  -3  23   -0.15    3.08
   0   3 -24  -10.20    5.30
   0  -3  24    0.07    3.67
   0  -3 -24   -1.48    3.00
   0  -3 -24   -2.72    3.94
   0  -3 -25   -1.73    3.32
   0   3 -25    2.83    3.58
   0  -3 -25   -2.31    3.65
   0  -3 -26   -3.44    3.74
   0   3 -26   -6.38    4.60
   0   3 -27   -7.61    5.27
   0  -3 -27   -1.21    3.07
   0   3 -28   -4.55    5.19
   0  -3 -28   -3.16    3.67
   0  -3 -29   -3.25    4.25
   0  -3 -30    0.95    4.17
   0  -4   0 4191.95   37.68
   0   4   0 4238.66   38.14
   0  -4   0 4124.48   33.40
   0   4   0 4170.68   34.04
   0   4   1 1493.43   22.92
   0  -4   1 1477.83   20.79
   0   4   1 1508.71   23.11
   0   4  -1 1521.11   23.13
   0  -4  -1 1486.93   19.61
   0   4  -1 1539.90   21.08
   0  -4  -1 1547.14   23.15
   0   4   2 1809.52   25.68
   0   4  -2 1849.04   24.06
   0  -4  -2 1726.66   13.70
   0   4   2 1801.79   20.51
   0  -4  -2 1801.24   25.36
   0  -4   2 1779.28   23.68
   0  -4  -2 1794.50   21.01
   0   4   2 1789.70   25.64
   0   4  -2 1809.03   25.44
   0  -4  -3   87.71    3.72
   0  -4  -3  102.20    6.28
   0   4  -3  100.13    5.87
   0   4   3   95.21    6.17
   0  -4  -3   92.05    2.96
   0   4   3   91.86    5.89
   0   4   3   93.48    3.43
   0   4   3   93.52    4.78
   0  -4   3  101.11    6.12
   0  -4  -3   92.86    4.75
   0   4   4  243.20    7.83
   0   4   4  252.65    9.98
   0  -4  -4  253.94    7.96
   0   4   4  240.07    5.45
   0  -4  -4  252.69    6.94
   0  -4  -4  251.66    9.92
   0  -4   4  234.43    9.37
   0  -4  -4  249.42    5.68
   0   4  -4  259.62    9.63
   0   4   4  249.09   10.21
   0   4   5  249.12   10.43
   0  -4  -5  237.38   10.30
   0  -4  -5  246.59    6.54
   0  -4  -5  247.26    8.23
   0   4   5  254.47    8.30
   0  -4   5  244.81    9.86
   0  -4  -6  803.30   11.12
   0   4   6  784.77   19.16
   0  -4  -6  796.73   18.54
   0  -4  -6  785.72   15.37
   0   4   6  803.73   15.22
   0  -4   6  773.34   18.34
   0   4   7  334.58   10.24
   0  -4   7  322.31   12.29
   0   4   7  329.22   12.80
   0  -4  -7  337.55   12.45
   0  -4  -7  340.52   10.55
   0  -4  -7  342.06    7.93
   0   4   8  231.81   11.01
   0   4   8  227.93    8.81
   0  -4  -8  213.07    6.90
   0  -4  -8  222.05   10.26
   0  -4  -8  227.82    9.05
   0  -4   8  223.88   10.77
   0   4   9    3.24    2.50
   0  -4   9    4.73    1.43
   0   4   9    3.28    1.44
   0  -4  -9    2.03    1.17
   0  -4  -9    5.58    2.74
   0  -4   9    4.80    3.21
   0  -4  -9    3.51    2.04
   0  -4 -10    2.04    2.24
   0  -4  10    5.06    2.69
   0   4  10    0.44    1.95
   0  -4 -10    0.43    2.30
   0  -4  10    0.23    0.79
   0   4  11   93.30    7.97
   0  -4 -11   92.49    7.29
   0  -4 -11  101.99    6.92
   0  -4  11  101.46    8.01
   0  -4 -12    5.39    2.69
   0  -4  12    1.67    2.79
   0  -4 -12    1.36    1.89
   0   4  12    3.73    2.47
   0  -4 -13    6.10    2.71
   0  -4  13    3.51    3.04
   0   4  13    3.32    2.53
   0  -4 -13    4.09    2.50
   0  -4 -14  178.16   10.13
   0  -4 -14  176.38   10.57
   0   4  14  168.02   11.46
   0  -4  14  179.04   11.46
   0   4  15   75.05    8.04
   0  -4  15   75.63    8.01
   0  -4 -15   82.13    7.50
   0  -4 -15   80.32    7.17
   0  -4  16  124.50   10.37
   0  -4 -16  127.26    9.56
   0  -4 -16  109.33    9.06
   0   4  16  111.48    9.97
   0  -4  17  496.75   21.06
   0  -4 -17  502.28   19.41
   0   4  17  497.80   21.50
   0  -4 -17  489.15   19.01
   0  -4 -18 1154.14   29.87
   0  -4 -18 1168.47   29.97
   0  -4  18 1099.21   32.49
   0  -4 -19  285.44   16.22
   0  -4 -19  307.45   16.18
   0  -4  19  341.34   18.55
   0  -4 -20    9.06    4.59
   0  -4  20    6.01    4.05
   0  -4 -20    4.23    3.49
   0  -4 -21   36.47    5.63
   0  -4  21   42.28    7.20
   0  -4 -21   44.02    6.51
   0  -4  22    5.27    4.48
   0  -4 -22    0.26    2.69
   0  -4 -22    0.22    2.75
   0  -4 -23   70.43    8.69
   0  -4  23   76.72   10.26
   0   4 -23   87.06   10.83
   0  -4 -23   76.81    9.32
   0  -4 -24  211.22   14.51
   0  -4 -24  204.89   15.37
   0  -4  24  218.62   16.71
   0   4 -24  201.23   16.63
   0  -4 -25   75.09    9.84
   0  -4  25   82.18   11.00
   0  -4 -25   76.71    9.38
   0   4 -25   83.97   11.25
   0  -4  26    5.21    3.65
   0   4 -26    6.66    4.97
   0  -4 -26   10.96    4.83
   0  -4 -27    3.09    3.73
   0   4 -27    4.75    4.04
   0  -4 -28   28.99    6.62
   0  -4 -29   11.93    4.84
   0  -4 -30   -0.91    2.90
   0  -5   0    0.47    1.78
   0   5   0    0.70    1.25
   0  -5   1    1.99    2.13
   0   5  -1   -1.21    2.60
   0   5  -1    4.34    1.81
   0   5   1    0.75    3.16
   0  -5  -1   -1.06    1.72
   0  -5  -2    2.86    1.51
   0   5  -2    0.80    2.75
   0   5   2    2.79    1.52
   0   5  -2    0.59    1.00
   0   5   2   -1.17    2.47
   0  -5   2    1.38    1.97
   0  -5  -2    1.00    0.77
   0   5   3   -4.28    3.19
   0   5  -3    1.59    2.85
   0  -5   3    0.13    1.93
   0  -5  -3   -0.37    0.78
   0  -5  -3    0.21    1.41
   0   5   3   -0.10    1.02
   0   5   4   -1.95    3.35
   0   5   4    0.35    1.02
   0  -5  -4   -0.52    0.79
   0   5   4    1.44    0.78
   0  -5  -4    0.43    0.75
   0  -5   4    2.04    2.19
   0  -5  -4   -1.26    1.45
   0  -5  -5    0.93    1.70
   0  -5  -5    1.34    1.07
   0  -5  -5   -0.19    0.98
   0   5   5   -0.26    0.93
   0   5   5    0.30    2.04
   0  -5   5    0.90    1.96
   0   5   6    2.24    2.38
   0  -5  -6   -0.90    1.13
   0  -5  -6   -0.31    1.11
   0  -5   6   -1.49    2.30
   0  -5  -6   -1.57    1.58
   0   5   6    0.23    0.93
   0  -5  -7   -0.22    1.75
   0   5   7   -0.27    0.94
   0  -5  -7   -1.28    1.43
   0  -5  -7    2.90    3.57
   0   5   7    0.62    2.30
   0  -5   7   -4.20    3.21
   0  -5  -8   -0.99    1.83
   0  -5   8   -5.83    3.71
   0   5   8    0.65    2.38
   0  -5  -8    0.34    0.93
   0   5   8    0.82    1.06
   0  -5  -8   -0.73    3.05
   0  -5  -9    2.95    3.12
   0  -5  -9    0.11    1.76
   0   5   9   -0.14    2.70
   0  -5   9   -1.87    2.76
   0  -5  -9    0.89    1.24
   0   5  10    0.23    2.66
   0  -5  10    1.50    1.27
   0  -5 -10    0.33    1.08
   0  -5 -10    4.88    3.59
   0  -5  10   -3.02    3.22
   0  -5 -10   -2.94    2.13
   0  -5  11    1.02    1.15
   0  -5 -11    2.20    2.97
   0  -5 -11    1.63    1.74
   0   5  11    2.57    2.40
   0  -5  11    1.05    2.83
   0  -5 -11   -0.17    1.24
   0  -5 -12   -0.10    1.55
   0  -5 -12    1.74    3.29
   0  -5 -12    1.41    2.58
   0  -5  12   -1.50    2.87
   0  -5  12   -0.39    1.09
   0   5  12    1.94    2.73
   0  -5 -13    0.00    1.61
   0  -5 -13    2.64    3.37
   0   5  13    3.39    3.19
   0  -5  13    0.25    2.72
   0  -5 -13    0.45    2.60
   0  -5  14   -3.35    3.51
   0  -5 -14    7.01    4.14
   0  -5 -14    2.83    2.53
   0  -5 -14   -0.48    2.17
   0   5  14   -2.49    3.09
   0  -5 -15   -2.47    2.60
   0  -5 -15    1.13    2.21
   0   5  15   -2.60    3.65
   0  -5  15   -0.65    3.05
   0  -5 -15   -1.35    2.93
   0  -5 -16    1.08    3.23
   0  -5 -16   -1.82    2.59
   0  -5  16   -0.12    3.25
   0   5  16   -4.48    3.60
   0  -5 -17    1.96    2.62
   0  -5 -17   -3.17    3.64
   0   5  17   -3.81    3.57
   0  -5  17    0.20    3.89
   0  -5 -18    2.91    2.88
   0  -5  18    3.89    3.59
   0   5  18    6.57    4.29
   0  -5 -18   -1.24    3.14
   0  -5 -19   -0.20    2.65
   0  -5 -19   -0.08    2.85
   0  -5  19    0.55    2.86
   0   5  19   -1.17    3.56
   0  -5 -20    1.15    3.43
   0  -5  20   -2.10    3.29
   0  -5 -20    1.52    2.60
   0  -5  21   -0.27    3.73
   0  -5 -21   -5.10    3.67
   0  -5 -21   -3.63    2.70
   0  -5 -22   -2.97    2.56
   0  -5 -22    0.29    3.19
   0  -5  22   -1.17    2.91
   0  -5 -23   -1.89    3.25
   0  -5  23   -2.39    4.25
   0  -5 -23   -0.03    2.81
   0  -5 -24    4.12    3.41
   0  -5 -24    1.00    2.87
   0  -5  24   -3.90    4.50
   0   5 -25    0.55    3.78
   0  -5 -25    5.64    4.16
   0  -5  25   -3.44    3.30
   0  -5 -25   -2.33    3.29
   0  -5  26   -3.72    3.88
   0  -5 -26    0.65    2.77
   0   5 -26   -1.29    3.38
   0  -5  27   -6.62    4.83
   0  -5 -27   -0.19    2.77
   0  -5 -28   -2.75    3.57
   0  -5 -29    0.12    2.72
   0   6   0   19.83    4.78
   0  -6   0   17.84    3.85
   0   6   0   10.33    1.18
   0   6   1 3833.87   37.13
   0  -6   1 3831.60   40.77
   0   6   1 3712.68   45.15
   0   6  -1 3821.47   45.55
   0  -6  -1 3870.85   39.20
   0   6   2 1183.09   20.43
   0   6   2 1154.78   25.29
   0  -6  -2 1169.65   21.13
   0   6  -2 1154.10   25.29
   0  -6   2 1154.14   23.29
   0  -6   3  222.80   10.52
   0  -6  -3  218.73    9.07
   0   6   3  211.53    8.85
   0  -6  -3  203.53    5.49
   0   6   3  196.81   10.24
   0   6  -3  209.79   10.90
   0  -6  -4  532.36   14.11
   0   6   4  538.48    9.85
   0   6  -4  541.44   17.70
   0  -6   4  550.27   16.71
   0   6   4  525.68   17.42
   0   6   4  563.60   14.24
   0  -6  -4  551.42   10.22
   0   6   5   26.58    2.13
   0  -6  -5   25.83    3.32
   0   6   5   30.79    4.92
   0  -6  -5   25.85    2.60
   0  -6  -5   26.36    2.12
   0   6   5   26.46    3.17
   0  -6   5   27.46    4.32
   0   6   6    9.88    2.92
   0  -6   6    5.31    2.23
   0  -6  -6    7.54    1.59
   0  -6  -6   10.46    2.52
   0   6   6    8.44    2.00
   0  -6  -6    6.20    1.26
   0  -6  -7  283.61    8.07
   0  -6  -7  267.46    9.37
   0  -6  -7  291.80   10.92
   0   6   7  278.74   10.45
   0   6   7  277.90   13.49
   0  -6   7  286.78   13.02
   0  -6  -8   34.72    3.67
   0  -6  -8   33.82    4.16
   0  -6   8   36.50    5.04
   0  -6  -8   37.00    3.23
   0   6   8   35.66    5.15
   0  -6  -9   61.23    4.53
   0  -6  -9   63.85    5.66
   0   6   9   54.53    6.53
   0  -6   9   59.25    6.61
   0  -6 -10   87.18    8.55
   0  -6 -10   68.57    6.15
   0  -6 -10   64.85    4.92
   0  -6  10   72.26    7.48
   0  -6 -10   71.14    4.26
   0   6  10   57.77    6.89
   0   6  11    7.22    5.06
   0  -6  11    3.02    1.93
   0  -6 -11    5.70    1.81
   0  -6 -11   15.19    3.88
   0  -6  11    6.19    4.22
   0  -6 -11   17.06    6.12
   0  -6 -12 2602.91   43.64
   0  -6 -12 2519.34   28.43
   0  -6 -12 2542.86   37.86
   0  -6  12 2550.45   45.15
   0  -6  12 2540.93   27.90
   0   6  12 2655.65   45.96
   0  -6  13    4.16    4.14
   0  -6  13    0.80    1.12
   0  -6 -13    1.80    2.75
   0  -6 -13    7.64    2.50
   0  -6 -14  244.39   12.56
   0  -6 -14  249.05    9.99
   0   6  14  232.76   14.81
   0  -6 -14  262.28   14.86
   0  -6  14  248.16   14.95
   0  -6 -15  530.31   21.32
   0   6  15  532.34   22.34
   0  -6 -15  522.00   15.20
   0  -6 -15  557.68   19.44
   0  -6  15  534.94   22.34
   0  -6 -16   65.41    5.75
   0  -6 -16   81.36    9.19
   0  -6 -16   68.18    7.21
   0  -6  16   71.49    8.92
   0   6  16   67.11    8.56
   0  -6 -17   91.78    9.45
   0   6  17   92.95    9.98
   0  -6  17   89.28    9.88
   0  -6 -17   94.67    8.78
   0  -6 -17   88.60    6.90
   0   6  18  345.66   19.77
   0  -6 -18  352.01   16.75
   0  -6 -18  346.49   18.10
   0  -6  18  358.75   19.50
   0  -6 -18  346.51   14.03
   0  -6 -19  249.35   14.66
   0  -6 -19  237.15   15.40
   0  -6 -19  237.43   12.18
   0   6  19  217.74   16.09
   0  -6  19  238.71   16.55
   0  -6 -20   69.94    8.51
   0  -6 -20   76.64    9.46
   0   6  20   57.25    8.83
   0  -6  20   73.48   10.27
   0  -6  21  304.04   19.41
   0  -6 -21  307.32   17.26
   0  -6 -21  292.79   17.48
   0  -6 -22  162.71   12.89
   0  -6  22  147.85   14.13
   0  -6 -22  161.24   13.38
   0  -6  23    4.50    4.33
   0  -6 -23   11.42    4.93
   0  -6 -23   10.49    4.91
   0  -6  24   49.18    9.16
   0  -6 -24   44.89    7.55
   0  -6 -24   43.90    7.73
   0  -6 -25   81.47   10.15
   0  -6  25   78.53   11.13
   0  -6 -25   82.86   10.24
   0  -6 -26   86.44   10.70
   0  -6  26   99.85   12.69
   0   6 -26   85.64   11.90
   0  -7   0    0.70    2.49
   0   7   0    1.07    2.98
   0   7   0    0.64    0.51
   0  -7  -1    2.60    2.29
   0  -7   1    4.53    3.15
   0   7   1    3.42    3.58
   0   7  -1    6.44    4.22
   0  -7  -2   -0.03    1.73
   0   7   2    0.91    2.99
   0   7  -2    3.69    3.65
   0  -7  -3    2.23    1.98
   0   7   3   -4.10    3.68
   0   7  -3    2.51    3.21
   0  -7   3   -1.02    2.33
   0   7   4   -3.44    3.92
   0   7  -4    3.96    3.66
   0   7   4    0.64    0.96
   0  -7  -4    1.29    0.82
   0  -7  -4    3.92    2.09
   0  -7   4   -0.70    2.70
   0  -7  -5    1.68    1.83
   0  -7   5   -2.25    3.05
   0   7   5   -0.35    0.64
   0  -7  -5   -1.17    1.27
   0   7  -5    2.88    3.53
   0   7   5    5.09    3.72
   0  -7  -6    2.15    1.07
   0  -7  -6    0.45    1.72
   0   7   6    1.82    3.33
   0  -7   6   -4.30    3.22
   0  -7  -6    1.20    1.12
   0  -7   7   -2.05    2.49
   0  -7  -7    1.44    1.78
   0  -7  -7    2.07    1.44
   0   7   7   -0.02    2.71
   0  -7  -7   -0.62    1.17
   0  -7   8   -1.53    3.20
   0  -7  -8    0.69    1.12
   0  -7  -8    1.15    2.45
   0  -7  -8    0.60    0.99
   0  -7  -8   -2.27    2.14
   0   7   8   -2.09    3.24
   0   7   9   -3.20    3.43
   0  -7  -9    0.35    1.37
   0  -7  -9    1.13    2.18
   0  -7   9   -0.92    3.30
   0  -7  10   -0.32    3.32
   0  -7 -10   -2.07    2.40
   0  -7 -10    0.49    1.35
   0   7  10   -0.18    2.85
   0   7  11    3.70    3.89
   0  -7 -11    3.29    2.92
   0  -7  11    2.30    4.26
   0  -7 -11   -0.41    1.69
   0   7  12    2.96    4.23
   0  -7  12   -1.10    3.45
   0  -7 -12    2.46    2.69
   0  -7  12    1.87    2.07
   0  -7 -12   -0.03    1.67
   0  -7 -13   -1.33    2.83
   0  -7 -13    1.00    1.47
   0  -7  13    1.86    3.60
   0  -7 -13   -3.56    2.51
   0   7  13    1.96    3.19
   0  -7  13    0.08    1.63
   0  -7 -14    1.89    1.75
   0   7  14    4.13    3.52
   0  -7  14   -0.13    1.16
   0  -7 -14    6.74    4.78
   0  -7 -14   -2.34    2.84
   0  -7 -14    0.91    2.35
   0  -7  14   -1.72    3.90
   0  -7  15    1.15    3.36
   0  -7 -15   -3.90    2.95
   0  -7 -15   -0.50    1.46
   0  -7 -15   -1.08    2.57
   0   7  15   -2.97    3.65
   0  -7  16    2.57    4.25
   0  -7 -16    7.68    4.93
   0   7  16   -3.19    3.65
   0  -7 -16    7.60    2.93
   0  -7 -16   -0.92    2.61
   0  -7  17    0.56    2.93
   0   7  17   -4.13    4.18
   0  -7 -17   -3.87    3.00
   0  -7 -18    6.09    4.87
   0   7  18    2.59    3.03
   0  -7 -18    1.89    2.70
   0  -7  18   -0.78    4.09
   0   7  19   -3.53    3.95
   0  -7 -19    7.16    4.93
   0  -7 -19   -4.19    3.85
   0  -7  19   -2.10    4.00
   0  -7  20   -4.28    4.29
   0   7  20   -4.52    4.10
   0  -7 -20    0.90    2.52
   0  -7 -21   -0.34    3.18
   0  -7 -21    7.27    4.36
   0  -7  21   -1.35    3.69
   0   7  21    3.99    3.37
   0  -7 -22   -7.42    4.55
   0  -7 -22    3.78    3.49
   0  -7  22    4.85    4.43
   0   7  22   -2.23    4.70
   0  -7  23   -4.08    3.73
   0  -7 -23    0.07    3.17
   0  -7 -24   10.01    5.01
   0  -7  24    3.32    4.41
   0  -7 -24   -4.00    3.53
   0  -7  25    0.77    3.99
   0  -7 -25   12.08    5.24
   0   8   0  456.97   18.63
   0  -8   0  441.56   16.05
   0  -8  -1   17.87    3.56
   0  -8   1   15.79    3.55
   0   8  -1   18.46    1.79
   0   8   1   20.74    4.64
   0   8  -1   17.99    4.94
   0  -8   2   35.91    5.16
   0   8  -2   34.91    5.56
   0   8   2   33.04    5.44
   0  -8  -2   33.81    4.46
   0   8  -3   15.80    1.24
   0   8   3   11.36    2.97
   0  -8  -3   17.91    3.34
   0   8  -3   13.59    3.95
   0  -8   3   17.47    3.69
   0   8   4  173.28    6.49
   0  -8  -4  174.78    9.55
   0   8   4  163.92   11.36
   0   8  -4  175.03   11.98
   0  -8   4  178.61   11.04
   0   8  -5   76.41    8.51
   0  -8  -5   70.68    3.89
   0   8   5   74.13    4.04
   0  -8   5   79.48    7.73
   0   8   5   82.79    8.32
   0  -8  -5   70.90    6.01
   0  -8   6  212.21   12.77
   0   8   6  203.92   13.14
   0   8  -6  218.81   13.85
   0  -8  -6  194.63    7.17
   0  -8  -6  205.23   10.22
   0  -8   7  989.53   27.54
   0  -8  -7  936.97   17.38
   0   8  -7 1035.77   28.94
   0  -8  -7  994.07   22.19
   0   8   7 1019.95   28.91
   0  -8  -8  326.44   10.98
   0  -8   8  347.21   16.64
   0   8   8  332.46   17.36
   0  -8  -8  339.04   13.11
   0  -8  -8  338.48    8.49
   0  -8  -9  190.15    9.95
   0  -8  -9  183.16    6.98
   0  -8   9  186.05   12.54
   0   8   9  189.99   13.46
   0  -8  10  117.30   10.61
   0   8  10  118.64   11.20
   0  -8 -10  107.62    7.76
   0  -8 -10  110.55    6.05
   0  -8 -10  113.50    8.18
   0  -8 -11 1220.47   26.81
   0  -8 -11 1207.63   20.79
   0   8  11 1238.82   34.17
   0  -8  11 1272.92   33.93
   0  -8  12   61.19    8.22
   0  -8 -12   71.26    7.35
   0  -8 -12   58.83    5.09
   0   8  12   56.86    7.80
   0  -8 -13  130.62    9.40
   0  -8 -13  131.56    7.85
   0  -8  13  117.24   11.01
   0  -8  13  134.32    7.90
   0   8  13  133.70   11.93
   0  -8 -14  113.05    7.78
   0  -8 -14  110.63    8.98
   0   8  14  110.53   11.20
   0  -8  14  109.56   11.21
   0  -8 -15  557.88   17.75
   0  -8 -15  560.69   20.30
   0   8  15  571.95   25.40
   0  -8  15  612.47   25.58
   0   8  16   10.07    5.01
   0  -8  16   16.52    6.34
   0  -8 -16   10.10    3.20
   0  -8 -16    6.32    3.41
   0  -8 -17  478.89   18.04
   0  -8 -17  498.51   19.99
   0  -8  17  468.95   23.79
   0   8  17  469.79   23.84
   0   8  18   89.98   10.93
   0  -8 -18   79.93    8.68
   0  -8  18  100.88   11.72
   0   8  19  126.74   13.19
   0  -8  19  120.49   12.65
   0  -8 -19  127.90   11.08
   0   8  20    4.12    4.30
   0  -8 -20    1.53    2.74
   0  -8  20    0.40    3.51
   0  -8  21  139.86   14.10
   0   8  21  130.78   13.89
   0   8  22    6.78    4.28
   0  -8  22   11.01    5.78
   0   8  23   76.12   11.17
   0  -8  23   77.91   11.29
   0  -8  24   10.78    5.71
   0   9   0   -0.10    3.60
   0  -9   0    0.74    2.20
   0   9   1    1.59    2.95
   0   9  -1   -0.60    0.60
   0  -9   1   -1.33    2.25
   0   9  -1    3.69    3.60
   0  -9  -1   -3.74    2.87
   0   9  -2    2.37    1.15
   0  -9   2   -1.90    2.43
   0  -9  -2   -1.06    2.20
   0   9   2   -1.01    2.65
   0   9   3   -6.24    4.50
   0   9  -3    3.27    4.58
   0  -9   3    0.85    2.49
   0  -9  -3    3.11    2.57
   0   9  -4   -6.05    4.70
   0   9   4   -5.27    4.38
   0  -9  -4   -1.08    2.53
   0  -9   4    0.15    3.01
   0   9   5   -8.32    5.34
   0   9  -5    1.19    3.83
   0  -9  -5   -2.18    2.80
   0  -9   5   -1.09    2.96
   0   9  -6    6.13    4.84
   0  -9   6   -0.77    3.27
   0   9   6   -3.80    4.13
   0  -9  -6   -3.88    2.78
   0  -9  -7    0.45    2.28
   0   9   7   -1.35    3.17
   0  -9   7   -4.75    4.05
   0  -9   8    7.11    4.22
   0  -9  -8    4.03    2.73
   0   9   8    1.65    3.03
   0  -9  -9   -0.81    2.28
   0  -9   9   -0.72    3.66
   0   9   9    2.05    2.88
   0   9  -9    9.30    5.34
   0  -9  10    2.43    3.35
   0  -9 -10   -0.69    2.18
   0   9  10   -1.92    3.19
   0  -9 -11    3.68    2.20
   0  -9  11    2.80    3.35
   0   9  11   -3.41    4.17
   0  -9  12    0.99    2.95
   0  -9 -12   -0.98    2.18
   0   9  12    0.60    3.45
   0   9  13   -3.50    4.45
   0  -9  13   -0.41    3.80
   0  -9 -13   -0.66    1.96
   0  -9 -13   -1.19    2.57
   0  -9  14    1.17    3.58
   0  -9 -14    0.27    2.19
   0   9  14   -2.95    3.55
   0  -9 -15   -2.41    2.62
   0  -9  15    0.91    3.07
   0   9  16   -1.61    3.86
   0  -9  16   -3.45    4.04
   0  -9 -16   -1.81    2.59
   0  -9  17   -1.13    4.07
   0   9  17    0.68    2.63
   0  -9 -17    0.18    2.68
   0   9  18   -1.03    3.11
   0  -9  18    0.42    3.11
   0   9  19    3.96    4.04
   0  -9  19    3.45    4.49
   0   9  20    7.79    4.36
   0  -9  20    2.29    4.17
   0   9  21    3.32    4.39
   0  -9  21    4.72    4.45
   0   9  22    7.36    4.48
   0  -9  22    0.97    4.93
   0 -10   0   22.41    4.37
   0  10   0   23.79    5.61
   0 -10   1    5.74    2.80
   0 -10  -1   10.01    3.68
   0  10   1    4.00    3.40
   0  10  -1   14.70    5.00
   0 -10   2    5.44    2.85
   0  10   2    0.83    3.95
   0 -10  -2    7.17    2.92
   0  10  -2    9.70    4.76
   0  10  -3    7.19    4.80
   0 -10  -3    1.10    2.74
   0  10   3   -1.87    4.32
   0 -10   3    1.01    2.74
   0 -10   4  201.56   13.28
   0  10   4  207.85   14.80
   0  10  -4  198.15   14.46
   0 -10  -4  206.78   11.92
   0  10   5  203.52   14.45
   0 -10   5  218.39   13.97
   0 -10  -5  208.23   11.86
   0  10  -5  196.37   14.30
   0  10   6  174.05   13.56
   0  10  -6  163.00   13.28
   0 -10   6  186.73   13.19
   0 -10  -6  184.10   11.13
   0  10  -7   81.13   10.13
   0 -10  -7   62.71    6.60
   0 -10   7   64.29    8.11
   0  10   7   72.38    9.13
   0  10   8  562.67   24.48
   0 -10   8  520.64   22.70
   0  10  -8  531.92   24.28
   0 -10  -8  541.02   18.65
   0 -10  -9   37.30    5.32
   0  10   9   38.18    6.85
   0  10  -9   41.05    7.75
   0 -10   9   35.75    6.99
   0  10  10    1.20    2.94
   0 -10  10    4.32    4.39
   0  10 -10    5.00    4.47
   0 -10 -10    1.89    2.37
   0  10 -11  252.84   17.56
   0 -10  11  264.44   17.13
   0  10  11  262.32   17.62
   0 -10 -11  265.05   12.92
   0  10  12   79.07   10.12
   0 -10  12   73.92    9.67
   0  10  13   42.08    7.63
   0 -10  13   53.19    8.58
   0  10  14  234.90   17.34
   0 -10  14  233.28   17.17
   0 -10  15    2.50    3.55
   0  10  15    4.66    3.95
   0 -10  16   -2.78    3.72
   0  10  16    2.48    2.87
   0  10  17   -2.37    4.08
   0 -10  17    5.04    4.01
   0  10  18   92.55   11.86
   0 -10  18  100.93   12.37
   0 -10  19    6.40    4.59
   0  10  19    6.32    3.78
   0 -10  20   13.52    5.81
   0  10  20   12.50    5.57
   0 -11   0   -1.10    2.86
   0  11   0   -0.32    3.89
   0 -11  -1    0.35    2.50
   0  11   1   -2.60    3.27
   0 -11   1    0.55    2.42
   0  11  -1   -1.17    3.78
   0 -11  -2   -1.36    2.72
   0  11   2   -6.22    4.77
   0 -11   2   -1.67    2.73
   0  11  -2   -1.23    3.21
   0  11  -3    2.81    4.06
   0  11   3   -4.33    4.03
   0 -11   3    1.32    2.92
   0 -11  -3    2.93    2.73
   0  11   4   -3.14    3.83
   0 -11  -4    0.53    2.43
   0  11  -4    2.02    3.94
   0 -11   4   -0.92    3.16
   0  11  -5    4.91    4.03
   0 -11   5    0.11    2.65
   0  11   5   -6.94    4.66
   0 -11  -5    2.64    2.85
   0 -11  -6    1.26    2.06
   0  11   6   -1.58    3.73
   0 -11   6   -4.36    3.82
   0  11  -6   -5.10    4.75
   0 -11  -7    3.28    2.99
   0  11  -7    0.77    3.59
   0  11   7    0.47    2.64
   0 -11   7   -2.88    2.84
   0 -11  -8    1.14    2.18
   0  11  -8   -1.79    3.65
   0  11   8   -1.84    3.40
   0 -11   8   -2.07    3.56
   0  11  -9    2.73    4.84
   0 -11   9   -5.16    4.61
   0 -11  -9   -0.86    2.28
   0  11   9    4.65    3.30
   0  11  10    4.06    4.08
   0 -11  10   -0.09    2.90
   0  11 -10    1.31    3.50
   0 -11  11    2.76    4.18
   0  11 -11    5.44    4.87
   0  11  11    4.39    4.53
   0 -11  12   -2.57    3.78
   0  11  12    1.80    3.50
   0  11 -12   -0.67    3.98
   0 -11  13   -1.90    3.11
   0  11 -13    1.65    3.26
   0  11  13   -1.43    3.08
   0 -11  14    4.16    4.46
   0  11  14   -3.08    4.24
   0  11 -14    7.64    5.14
   0  11  15   -5.05    4.71
   0 -11  15   -1.63    3.38
   0 -11  16   -2.49    4.18
   0  11  16   -1.86    2.87
   0  11  17   -2.40    3.62
   0 -11  17   -2.04    2.97
   0  11  18   -0.38    3.35
   0 -11  18    4.64    3.98
   0 -12   0  120.65   10.87
   0  12   0  120.90   12.33
   0 -12  -1    2.63    2.51
   0 -12   1    2.77    2.58
   0  12  -1    4.23    3.25
   0  12   1    3.83    3.88
   0 -12  -2   -0.30    2.39
   0 -12   2    1.05    2.55
   0  12  -2    3.38    4.02
   0  12   2   -1.66    3.25
   0  12  -3  107.93   11.93
   0 -12   3  101.08   10.29
   0  12   3  110.79   12.04
   0 -12  -3  111.94   10.04
   0 -12  -4    4.86    2.93
   0  12   4   -5.36    4.12
   0 -12   4    1.88    2.56
   0  12  -4    6.59    4.00
   0  12  -5   68.64    9.74
   0 -12  -5   69.25    7.75
   0  12   5   62.58    9.25
   0 -12   5   65.84    8.50
   0  12  -6   14.67    5.47
   0 -12  -6   11.04    3.80
   0 -12   6    7.90    4.02
   0  12   6    6.43    4.07
   0 -12   7   26.51    6.03
   0  12  -7   23.56    6.03
   0  12   7   19.87    5.94
   0 -12  -7   19.82    4.50
   0 -12   8   17.14    4.53
   0  12  -8   17.85    5.39
   0  12   8   18.20    6.07
   0  12   9   17.03    5.27
   0 -12   9   12.36    4.95
   0  12  -9   15.18    5.75
   0 -12  10  215.81   16.81
   0  12  10  215.70   17.49
   0  12 -10  218.58   17.62
   0 -12  11  121.76   12.91
   0  12  11  125.43   13.55
   0  12 -11  113.35   13.10
   0 -12  12   22.82    6.08
   0  12  12   34.97    7.76
   0  12 -12   24.42    6.84
   0  12  13   -4.89    4.62
   0 -12  13   -2.38    4.19
   0  12 -13    1.18    3.64
   0  12  14    5.28    3.20
   0 -12  14   14.51    5.39
   0  12 -14   15.50    6.17
   0  12 -15    0.00    4.12
   0 -12  15   -0.39    3.72
   0  12  15   -0.47    3.26
   0  12 -16    5.12    5.07
   0 -12  16   -2.10    3.28
   0  12  16   -0.78    3.32
   0  12 -17   11.78    5.63
   0 -13   0   -1.56    2.97
   0  13   0   -0.60    3.65
   0 -13   1   -1.73    2.99
   0 -13  -1    0.53    2.51
   0  13   1   -3.12    4.66
   0  13  -1   -3.22    3.97
   0  13  -2    2.84    4.13
   0  13   2   -3.24    4.37
   0 -13  -2    1.99    2.91
   0 -13   2    2.24    3.39
   0  13  -3   -0.96    3.94
   0 -13   3    1.31    2.88
   0 -13  -3    1.41    2.50
   0  13   3   -3.77    4.32
   0 -13  -4    2.64    2.58
   0  13  -4    1.06    3.55
   0 -13   4   -6.07    3.98
   0  13   4    6.52    3.99
   0  13  -5    5.17    4.88
   0 -13   5    1.17    2.80
   0  13   5    0.75    3.44
   0  13  -6    3.64    4.26
   0 -13   6    2.25    3.68
   0  13   6   -0.60    3.17
   0 -13   7   -6.25    3.88
   0  13   7   -1.89    3.11
   0  13  -7    3.90    4.28
   0 -13   8    0.97    3.09
   0  13   8   -5.07    3.81
   0  13  -8    4.24    5.04
   0  13   9    5.02    4.27
   0  13  -9   -2.08    3.84
   0 -13   9   -1.24    3.76
   0 -13  10    3.20    3.38
   0  13  10   -0.17    3.29
   0  13 -10    2.71    3.65
   0  13 -11    2.01    3.85
   0 -13  11    7.84    5.20
   0  13  11    5.32    4.09
   0  13  12   -3.59    4.43
   0  13 -12    1.47    3.88
   0 -13  12    4.81    3.81
   0  13  13  -10.18    5.42
   0 -13  13    2.56    3.32
   0  13 -13   -0.47    4.10
   0 -13  14   -1.79    3.88
   0  13 -14    7.96    5.51
   0 -14   0   34.75    6.70
   0  14   0   29.91    7.07
   0 -14  -1   41.20    7.01
   0 -14   1   46.22    7.60
   0  14   1   31.55    7.34
   0  14  -1   37.75    7.72
   0 -14   2   -1.09    3.32
   0 -14  -2   -2.41    2.62
   0  14   2   -2.50    3.99
   0  14  -2   -2.87    3.89
   0  14   3    2.10    3.16
   0 -14   3    2.11    3.06
   0  14  -3    4.80    3.37
   0  14   4   11.46    5.42
   0 -14   4   11.61    4.10
   0  14  -4    7.66    4.41
   0  14  -5    2.42    4.54
   0  14   5    1.51    3.92
   0 -14   5    2.38    3.25
   0  14   6   27.24    7.25
   0 -14   6   25.44    5.87
   0  14  -6   23.00    6.97
   0 -14   7   79.27   10.87
   0  14  -7   57.55    9.67
   0  14   7   56.83    9.87
   0 -14   8   56.56    9.42
   0  14  -8   73.56   11.28
   0  14   8   59.47   10.00
   0 -14   9    3.05    4.55
   0  14  -9   12.42    6.15
   0 -14  10   73.71   11.01
   0 -14  11    3.90    4.33
   0 -15   1    1.01    3.24
   0 -15   2    4.48    3.95
   0 -15   3   -3.16    3.56
   0 -15   4   -7.02    4.21
   0 -15   5   -1.92    3.23
   0 -15   6   -0.66    2.93
   0 -15   7   -0.41    4.13
   0 -15   8   -1.56    3.37
   1   0  -3    0.94    0.54
   1   0  -3   -0.23    0.89
   1   0   3    0.15    0.57
   1   0  -3    0.27    0.54
   1   0   4 1914.88   19.83
   1   0  -4 1897.42   16.90
   1   0  -4 1950.26   20.14
   1   0  -4 1894.97   15.43
  -1   0   4 1946.53   15.43
  -1   0  -4 1904.47   19.50
   1   0   5    4.08    1.42
   1   0  -5    4.55    1.26
   1   0  -5   11.17    2.22
  -1   0   5    4.90    1.37
  -1   0  -5    6.65    1.85
  -1   0  -5    4.01    1.96
   1   0  -6 3382.04   28.29
  -1   0   6 3406.08   25.32
   1   0   6 3458.11   31.04
  -1   0  -6 3420.11   30.79
   1   0  -6 3451.41   25.33
  -1   0  -6 3415.34   30.54
   1   0  -7    2.75    1.19
  -1   0  -7    1.35    3.31
  -1   0  -7   -0.11    1.05
  -1   0   7    1.79    1.33
   1   0  -8 3210.76   28.62
   1   0  -8 3275.50   32.51
  -1   0   8 3195.12   28.65
  -1   0  -8 3257.11   33.24
  -1   0  -8 3179.72   33.82
  -1   0  -9   -0.49    1.23
  -1   0   9   -0.10    1.28
   1   0  -9    0.10    1.22
  -1   0 -10    3.40    2.03
  -1   0  10    1.84    1.39
   1   0 -10    2.55    1.28
  -1   0  11   -0.63    1.56
   1   0 -11    1.85    1.36
  -1   0 -12 1601.88   29.36
  -1   0  12 1546.28   25.48
  -1   0 -13   40.21    7.93
  -1   0  13   10.92    5.14
  -1   0 -14  620.17   19.77
  -1   0  14  612.12   17.52
  -1   0 -15   35.28    8.05
  -1   0  15   10.29    4.37
  -1   0  16 1951.06   33.39
  -1   0 -16 2031.29   38.25
   1   0 -17   74.65    8.27
  -1   0 -17   69.14    9.91
  -1   0 -18    3.12    3.40
   1   0 -18    2.40    3.10
  -1   0  18    0.38    2.49
   1   0 -19   -0.72    3.36
  -1   0 -19   -0.46    3.61
   1   0 -20   93.50    9.56
  -1   0 -20   76.11    8.70
  -1   0 -21   -0.39    2.98
   1   0 -21    2.96    3.56
   1   0 -22   50.27    7.52
  -1   0 -22   53.35    7.69
  -1   0 -23   13.30    5.65
   1   0 -23    3.70    3.89
  -1   0 -24  251.28   17.60
   1   0 -24  240.16   16.82
   1   0 -25   18.66    6.20
  -1   0 -25   17.49    6.83
  -1   0 -26  282.70   19.75
   1   0 -26  288.59   19.50
  -1   0 -27   19.67    6.60
   1   0 -27   10.72    4.65
   1   0 -28    2.52    3.51
  -1   0 -28   -0.85    3.26
  -1   0 -29    8.57    4.45
   1   0 -29   -1.72    3.84
   1   0 -30   28.79    7.33
   1  -1  -1  601.59    6.58
  -1  -1  -2 3155.00   21.69
   1   1  -2 3083.09   21.74
   1  -1   2 3132.23   21.31
   1   1  -2 3119.10   19.98
   1  -1  -2 3105.89   19.38
   1   1   3  647.74   11.10
   1  -1  -3  500.98    9.72
  -1   1  -3  501.83    9.12
  -1  -1   3  526.82    9.20
  -1  -1  -3  654.46   10.52
   1   1  -3  506.78    9.23
  -1   1   3  511.79    8.63
   1   1  -3  498.63    8.97
  -1  -1   3  516.99    8.90
  -1   1   3  514.27    9.48
   1   1   3  664.23   10.69
  -1   1   3  498.04    9.52
   1  -1  -3  505.50    9.35
  -1   1  -3  504.09    9.67
  -1  -1  -3  639.62   10.52
   1  -1  -3  514.99    8.73
   1   1   3  658.42   10.51
  -1  -1  -3  651.18   11.01
   1  -1   3  512.76    9.69
   1   1  -3  519.66    9.21
  -1   1   4  197.14    6.00
   1  -1  -4  177.80    5.74
  -1  -1  -4  178.20    5.90
   1  -1  -4  172.41    6.33
   1   1   4  180.96    6.17
   1   1   4  180.07    6.27
  -1   1  -4  182.42    6.30
   1  -1   4  176.70    6.44
  -1   1  -4  174.76    6.16
   1  -1  -4  180.22    6.11
  -1  -1  -4  177.90    6.23
  -1  -1   4  179.61    5.81
   1   1  -4  178.27    5.84
  -1  -1  -4  174.49    6.23
   1   1  -4  180.37    5.51
   1   1   4  178.96    4.82
   1   1  -5  642.80   10.73
  -1  -1  -5  659.59    9.64
  -1  -1  -5  666.05   12.99
  -1   1   5  656.18    8.13
   1   1   5  648.86   12.86
   1   1   5  655.29   12.83
  -1   1   5  647.11   12.03
   1   1  -5  655.69   11.83
  -1   1  -5  649.18   12.65
  -1   1  -5  628.26   12.63
  -1  -1  -5  654.47   12.86
   1  -1  -5  650.12    8.16
   1  -1   5  677.82   13.03
   1  -1  -5  645.96   11.95
  -1  -1   5  647.23   11.84
   1  -1  -5  653.77   13.08
  -1   1  -6  134.30    6.22
  -1   1  -6  146.56    6.71
   1  -1  -6  128.18    5.82
  -1  -1  -6  138.37    6.35
   1   1   6  141.56    6.35
   1  -1  -6  131.75    4.31
   1   1   6  129.99    6.47
  -1   1   6  136.24    4.40
   1   1  -6  132.37    5.00
  -1  -1  -6  133.94    4.75
  -1   1   6  128.36    5.96
   1   1  -6  132.79    5.77
   1  -1   6  138.94    6.66
  -1  -1   6  132.16    5.76
  -1  -1  -6  129.91    6.21
   1   1   7  401.21   11.28
   1   1  -7  386.77   10.35
   1  -1  -7  389.12    8.25
  -1   1  -7  369.54   11.00
  -1   1   7  382.15   10.91
  -1   1   7  380.88    8.19
   1  -1  -7  397.09   10.90
  -1   1  -7  370.75   11.29
  -1  -1  -7  384.80   11.21
  -1  -1  -7  388.84    8.54
   1  -1   7  400.10   11.44
  -1  -1   7  392.28   10.44
  -1  -1  -7  393.44   11.42
   1   1   8  387.00   11.75
  -1  -1  -8  393.81    9.08
  -1  -1  -8  381.58   11.72
  -1  -1   8  385.34   10.89
  -1   1   8  399.83   11.84
   1  -1  -8  392.10   11.56
   1  -1  -8  389.12    9.07
  -1   1  -8  388.48   12.31
  -1  -1  -8  391.41   12.08
   1   1  -8  384.04   10.87
   1  -1   8  387.24   12.08
  -1   1   8  379.42    9.04
  -1   1  -8  398.52   11.95
  -1   1  -9  106.80    6.95
  -1  -1  -9  106.34    6.29
  -1  -1  -9   97.04    6.51
  -1  -1   9   99.92    5.99
   1  -1   9  105.65    6.87
  -1   1   9   98.07    5.04
   1  -1  -9  100.04    6.26
   1  -1  -9  101.13    5.06
   1   1  -9  101.58    5.87
   1  -1 -10   32.25    3.16
   1   1 -10   31.79    3.63
  -1   1 -10   31.68    4.53
  -1  -1  10   33.20    3.88
   1  -1  10   31.70    4.32
  -1  -1 -10   31.37    4.33
  -1   1  10   31.78    3.39
  -1  -1 -11  277.58   11.56
  -1   1 -11  260.36   11.71
   1  -1 -11  265.26    9.25
   1  -1  11  276.54   11.75
   1  -1 -11  263.78   10.44
  -1  -1  11  265.61   10.69
  -1   1  11  269.20    9.38
  -1   1  12   55.80    4.78
  -1   1 -12   65.93    6.91
   1  -1 -12   57.54    5.53
   1  -1 -12   50.21    4.35
   1  -1  12   62.69    6.69
  -1  -1 -12   60.99    6.59
  -1  -1  12   51.09    5.20
  -1   1 -13  628.24   19.27
  -1  -1 -13  618.98   19.07
  -1  -1  13  605.47   17.36
   1  -1 -13  639.04   17.84
   1  -1 -14   98.88    7.93
  -1  -1 -14   92.78    8.61
  -1  -1  14   83.25    7.06
  -1   1 -14   86.47    7.87
   1  -1 -15   83.43    7.44
  -1  -1 -15   92.53    8.52
  -1   1 -15   80.93    7.71
  -1  -1  15   80.84    7.14
   1  -1 -16  168.66   10.90
  -1  -1  16  147.05    9.78
  -1   1 -16  167.65   11.34
  -1  -1 -16  176.90   11.78
  -1  -1 -17  711.76   23.30
  -1   1 -17  697.36   23.64
  -1  -1  17  691.59   21.46
   1  -1 -17  691.66   22.29
  -1   1 -18   26.42    6.55
   1  -1 -18   23.39    5.24
  -1  -1  18   22.34    5.22
  -1  -1 -18   25.35    6.24
  -1   1 -19   14.65    5.57
   1  -1 -19   13.46    4.65
  -1  -1  19    7.29    4.13
  -1  -1 -19   19.34    5.79
   1  -1 -20  428.23   19.31
   1   1 -20  423.71   20.37
  -1  -1  20  406.84   18.47
  -1  -1 -20  441.87   20.34
  -1   1 -20  446.11   20.99
  -1  -1  21    5.88    4.22
   1   1 -21   11.24    4.91
  -1   1 -21    9.65    4.91
  -1  -1 -21   24.74    6.58
   1  -1 -21   17.26    5.58
  -1   1 -22   58.14    8.62
   1  -1 -22   79.61    9.11
   1   1 -22   72.06    9.17
  -1  -1 -22   64.17    8.90
   1   1 -23   77.61    9.66
   1  -1 -23   82.84    9.60
  -1  -1 -23   84.94   10.05
  -1   1 -23   73.59    9.44
  -1  -1 -24    4.21    3.93
  -1   1 -24    7.12    4.31
   1   1 -24   11.66    5.46
   1  -1 -24    5.33    3.89
  -1  -1 -25   68.18    9.73
   1  -1 -25   60.29    8.90
   1   1 -25   52.17    8.53
  -1   1 -25   61.46    9.47
   1   1 -26   46.26    8.10
  -1  -1 -26   54.80    9.03
  -1   1 -26   54.33    9.40
   1  -1 -26   45.55    8.09
   1  -1 -27    4.24    4.34
  -1  -1 -27    3.63    4.23
   1   1 -27    2.11    3.71
  -1   1 -27    6.81    4.83
   1  -1 -28   -0.56    3.58
  -1   1 -28   -4.05    3.85
  -1  -1 -28    8.35    5.27
   1   1 -28   -0.48    3.73
   1  -1 -29   -0.42    3.81
   1   1 -29    0.05    3.18
  -1  -1 -29    0.92    3.67
   1  -1 -30    3.78    4.02
  -1   2   0    0.26    0.71
  -1  -2   0    0.10    1.04
  -1   2   0    1.57    1.49
  -1  -2   0    1.09    0.69
  -1  -2   0    0.35    0.57
   1  -2   0   -0.43    0.72
  -1   2   0    2.30    1.19
   1   2   0    1.85    1.33
   1   2   0    1.49    0.76
  -1   2   1  108.38    3.00
  -1  -2   1  113.77    3.07
   1  -2  -1  119.78    3.14
   1  -2  -1  125.60    4.63
   1  -2   1  118.77    4.25
  -1   2   1  132.17    5.10
   1   2   1  121.64    4.66
  -1  -2   1  120.73    5.01
  -1   2   1  124.76    4.31
  -1  -2  -1  121.02    4.73
   1  -2  -1  123.71    4.46
  -1   2  -1  118.25    4.54
  -1   2  -1  119.73    4.28
   1   2  -1  128.61    3.58
   1  -2  -1  123.15    4.90
   1  -2  -1  121.23    5.02
  -1   2   1  123.39    4.30
   1   2  -1  127.62    4.69
   1   2  -1  119.98    3.27
   1   2   1  120.91    5.11
   1  -2   1  129.40    4.85
  -1  -2  -1  122.72    5.09
  -1   2   2  554.54   10.37
   1  -2  -2  548.27    9.25
   1  -2  -2  533.56   10.88
   1   2   2  522.00    9.52
  -1   2  -2  541.89   10.02
   1   2  -2  541.06    7.87
   1   2   2  556.06   10.34
  -1   2   2  553.84    9.26
   1  -2  -2  525.67   10.26
  -1  -2   2  546.68   10.89
   1  -2   2  532.41    9.84
   1   2  -2  540.61   10.86
   1   2   2  546.48   10.76
  -1  -2  -2  519.48   10.31
   1  -2  -2  535.96    9.51
  -1   2  -2  531.92    9.08
  -1   2   2  554.60    9.62
  -1  -2  -2  545.54   10.63
   1  -2  -3 7757.96   37.33
   1   2   3 8002.70   38.33
   1   2   3 7947.46   42.20
  -1  -2  -3 8080.42   42.82
  -1   2   3 7718.16   40.82
  -1  -2  -3 7972.17   42.37
   1  -2  -3 8001.89   41.80
   1   2   3 7879.04   42.33
   1  -2  -3 7963.18   39.67
  -1  -2  -3 7805.10   37.52
  -1   2  -3 8089.50   41.95
  -1  -2   3 7782.26   39.12
   1   2  -3 7982.29   43.27
  -1   2   3 8088.38   39.48
   1  -2   3 7974.44   41.62
  -1  -2   3 8117.34   43.27
   1   2  -3 8096.66   35.11
  -1   2   3 7938.51   37.50
  -1  -2  -4  329.42    9.18
   1  -2  -4  327.52    8.33
   1  -2  -4  323.89    8.72
  -1  -2   4  322.17    8.26
  -1  -2  -4  340.63    9.46
  -1   2  -4  342.95    9.35
   1   2   4  322.50    8.10
   1  -2   4  329.79    9.15
   1   2  -4  321.43    9.16
  -1   2   4  334.98    9.06
   1  -2  -4  340.29    9.09
   1   2   4  329.82    9.14
   1   2   4  322.07    8.40
  -1  -2  -4  330.80    8.25
  -1  -2   4  338.58    9.30
   1  -2  -4  316.82    5.79
   1   2   4  322.60    9.24
   1  -2  -5 6991.68   31.50
   1  -2   5 7112.28   45.25
  -1  -2   5 7056.61   37.92
  -1   2  -5 7357.08   46.03
  -1  -2   5 7136.49   44.90
   1  -2  -5 6977.27   23.26
   1   2  -5 7478.28   45.35
  -1  -2  -5 7086.41   39.90
   1   2   5 7216.85   40.38
   1   2   5 7077.02   45.61
   1  -2  -5 7142.35   44.07
   1   2   5 7271.47   44.76
   1  -2  -5 7212.29   43.96
  -1  -2  -5 7179.76   44.41
  -1  -2  -5 7346.23   46.36
   1  -2  -5 6989.33   41.28
  -1   2   5 7040.20   44.00
  -1   2  -6 1040.51   18.28
  -1  -2  -6 1014.28   15.63
  -1  -2  -6 1016.13   17.66
   1  -2  -6 1014.37   17.67
   1  -2  -6  980.55   10.44
  -1  -2  -6 1008.29   15.98
   1   2   6 1019.51   17.66
  -1  -2  -6 1062.91   18.65
  -1   2   6  991.21   17.61
   1  -2  -6 1008.46   13.49
   1  -2  -6 1016.26   17.64
  -1  -2   6  996.83   14.33
   1  -2   6  996.92   18.28
   1   2  -6 1010.49   17.55
   1   2  -6 1011.27   14.56
   1   2   6  996.09   18.36
  -1  -2   6  996.40   17.51
   1   2   6 1029.36   15.81
   1   2   7  361.22   10.91
  -1  -2   7  334.06   10.74
   1   2   7  337.74   11.42
   1  -2  -7  338.82    7.01
   1  -2  -7  366.40   11.14
  -1  -2  -7  348.98   11.38
  -1  -2  -7  337.14   10.79
  -1   2   7  357.38   11.13
   1  -2   7  351.96   11.33
   1   2  -7  352.72   10.87
   1   2  -7  357.34    8.81
  -1   2  -7  370.06   11.47
   1  -2  -7  352.93    8.87
  -1  -2  -7  358.73    9.69
   1   2   8   89.19    6.38
  -1  -2  -8   87.05    5.87
   1  -2  -8   89.72    4.08
   1   2   8   92.94    5.91
   1   2  -8   92.81    5.81
  -1  -2  -8   93.05    5.28
  -1  -2   8   92.31    6.07
   1   2  -8   92.44    4.65
   1  -2   8   92.45    6.44
  -1   2   8   90.68    6.12
   1  -2  -8   90.89    5.96
   1  -2  -8   92.21    5.10
  -1  -2  -9  554.58   13.13
  -1  -2   9  529.93   14.87
   1  -2  -9  584.17   13.35
   1   2  -9  564.82   11.48
   1  -2  -9  550.13   10.85
  -1  -2  -9  558.03   15.29
  -1   2   9  557.90   15.53
   1  -2   9  555.59   16.07
   1   2   9  549.31   16.00
  -1  -2  10 2561.09   33.48
   1  -2 -10 2519.69   29.53
   1   2  10 2495.63   35.91
   1  -2  10 2568.12   35.10
   1  -2 -10 2549.22   25.20
  -1  -2 -10 2503.70   33.70
  -1   2  10 2525.53   34.70
   1   2 -10 2562.41   24.89
  -1  -2 -10 2526.00   28.93
   1  -2 -11  226.07    9.88
  -1   2  11  191.63   10.18
  -1  -2  11  211.23   10.11
  -1  -2 -11  197.07   10.15
  -1  -2 -11  181.27    8.13
   1   2 -11  194.81    7.12
   1  -2  11  231.34   12.07
   1  -2 -11  207.94    7.84
  -1  -2 -12   45.11    5.42
  -1  -2 -12   43.07    4.42
  -1  -2  12   44.60    5.05
  -1   2  12   56.56    6.09
   1  -2  12   49.23    6.18
   1  -2 -12   57.91    5.89
   1  -2 -12   53.88    4.64
   1   2 -12   47.12    3.70
   1  -2 -13  647.95   17.81
   1  -2  13  637.36   19.89
  -1  -2  13  644.67   18.95
  -1  -2 -13  641.78   19.36
  -1  -2 -13  629.52   16.26
   1   2 -13  650.86   13.43
   1  -2 -13  654.51   15.43
  -1   2 -14   64.11    7.34
   1  -2 -14   85.33    7.37
  -1  -2 -14   69.75    7.46
  -1  -2  14   61.89    6.56
  -1  -2 -14   58.76    5.41
   1   2 -14   63.11    4.43
   1  -2  14   80.94    8.26
  -1  -2 -15  529.27   18.73
  -1  -2 -15  477.08   15.24
   1  -2  15  530.81   19.35
   1   2 -15  490.21   12.28
  -1   2 -15  503.30   19.06
   1  -2 -15  518.16   17.32
  -1  -2  15  493.66   17.74
  -1   2 -16  131.34   10.46
  -1  -2 -16  129.54    8.54
   1   2 -16  123.57    6.38
   1  -2  16  144.14   10.92
   1  -2 -16  145.58    9.92
  -1  -2  16  130.74    9.78
  -1  -2 -16  147.25   10.78
   1  -2  17   67.28    7.83
   1   2 -17   70.75    4.85
  -1  -2 -17   67.20    6.21
   1  -2 -17   68.73    7.16
  -1  -2 -17   70.50    7.75
  -1  -2  17   83.31    8.05
  -1   2 -17   71.02    7.64
   1  -2 -18   11.02    4.09
  -1   2 -18    8.74    4.09
  -1  -2 -18    7.00    3.75
  -1  -2 -18    4.85    2.45
  -1  -2  18    8.66    3.74
  -1  -2 -19  119.01   11.06
  -1  -2  19   99.35    9.56
  -1   2 -19   96.86   10.53
   1  -2 -19   97.21    9.44
  -1  -2 -19   96.86    8.01
  -1  -2 -20  811.31   22.73
  -1   2 -20  866.15   29.29
  -1  -2  20  845.92   27.06
  -1  -2 -20  860.62   28.33
   1  -2 -20  860.76   26.82
  -1   2 -21   93.32   10.86
  -1  -2  21   69.84    8.89
   1  -2 -21   91.87   10.06
  -1  -2 -21   65.72    9.75
  -1  -2 -21   78.81    7.70
   1  -2 -22   27.08    5.83
  -1  -2 -22   29.62    4.87
  -1  -2  22   25.74    5.66
  -1   2 -22   31.17    6.57
  -1  -2 -22   32.06    6.34
   1   2 -22   33.74    6.81
  -1  -2 -23   67.81    7.11
   1  -2 -23   87.81    9.65
  -1  -2  23   78.93    9.44
  -1  -2 -23   76.30    9.71
  -1   2 -23   83.92   10.16
   1   2 -23   78.31    9.85
  -1  -2 -24   24.53    6.27
  -1  -2  24   23.36    5.85
   1   2 -24   21.95    6.13
  -1   2 -24   31.81    7.39
   1  -2 -24   24.80    5.63
  -1   2 -25    3.43    3.27
   1  -2 -25    9.64    3.82
  -1  -2 -25    7.21    4.33
   1   2 -25    7.15    3.87
   1   2 -26   24.27    6.28
  -1   2 -26   42.03    8.09
  -1  -2 -26   29.37    6.93
   1  -2 -26   36.42    7.19
   1  -2 -27   84.35   10.83
  -1   2 -27   83.63   11.25
  -1  -2 -27   85.94   11.25
   1   2 -27   97.37   12.10
  -1   2 -28   10.56    4.81
   1   2 -28   12.45    5.47
  -1  -2 -28   10.18    5.14
   1  -2 -28    5.91    3.61
   1  -2 -29    9.46    3.98
   1   2 -29   11.32    5.48
  -1  -2 -29   16.00    6.07
   1  -2 -30   35.72    7.71
  -1   3   0    0.34    1.37
   1  -3   0   -0.68    1.18
  -1  -3   0   -0.98    1.58
  -1   3   0    4.18    1.69
   1   3   0    5.70    2.45
  -1   3   0   -0.84    2.07
  -1  -3   0    2.41    1.88
  -1   3   0    1.56    0.94
  -1   3   1 1961.62   17.78
   1   3  -1 1991.04   22.21
  -1   3   1 1953.58   16.90
  -1  -3  -1 2012.94   22.65
   1   3  -1 1980.94   13.82
   1   3   1 2017.25   22.68
  -1   3   1 2005.89   23.74
  -1   3  -1 1975.69   22.22
  -1   3  -1 2022.90   23.67
  -1   3   1 1952.22   23.02
   1  -3  -1 1983.18   23.30
  -1  -3   1 1906.31   22.78
   1  -3  -1 1982.64   23.34
  -1   3  -1 1994.74   20.11
   1   3   1 1964.60   22.61
   1  -3   1 1936.29   19.78
   1  -3  -1 1960.04   16.65
  -1   3   1 2010.21   18.14
   1  -3  -2  487.21    9.11
   1  -3  -2  464.60    9.34
   1   3  -2  487.26   11.29
  -1  -3  -2  495.74   11.26
   1   3   2  491.73   11.46
   1  -3   2  477.03   10.59
  -1   3   2  488.74   12.08
   1  -3  -2  488.87   11.71
  -1   3   2  479.96   11.69
  -1   3   2  494.76    9.49
   1   3  -2  517.64   12.10
   1  -3  -2  472.80   11.93
   1  -3  -2  492.74    7.55
   1   3  -2  479.90    6.98
  -1   3  -2  477.57   10.74
  -1  -3  -2  482.76   11.57
  -1   3   2  455.46    6.46
  -1   3   2  478.91    8.95
  -1   3  -2  477.87   10.58
   1   3   2  463.64   11.34
  -1  -3   2  479.39   11.70
  -1   3   2  473.11    7.56
   1   3   3 2499.25   22.78
   1  -3  -3 2620.42   16.12
  -1  -3  -3 2578.29   26.46
  -1  -3  -3 2619.29   27.86
   1  -3   3 2550.53   26.10
  -1  -3   3 2602.02   27.90
  -1   3   3 2549.36   21.64
  -1   3   3 2562.36   27.67
   1  -3  -3 2521.48   23.15
   1  -3  -3 2588.67   21.88
   1   3   3 2581.52   26.75
   1   3  -3 2639.74   28.19
   1  -3  -3 2624.37   28.76
   1   3  -3 2542.94   19.09
  -1   3  -3 2614.90   26.34
  -1   3   3 2538.17   23.09
   1   3   3 2581.75   27.47
   1  -3  -3 2523.96   15.46
  -1   3   3 2529.00   15.63
   1  -3  -3 2567.30   27.33
  -1  -3  -4  264.68    7.49
   1  -3  -4  270.97    7.60
  -1   3   4  261.19    5.53
   1  -3  -4  272.20    9.74
   1   3   4  267.98    7.70
  -1  -3  -4  271.34    9.33
  -1  -3   4  290.11    9.98
  -1  -3  -4  272.81    9.06
   1   3   4  274.30    9.43
   1   3   4  274.15    8.90
  -1   3  -4  277.84    9.06
   1  -3  -4  283.89    9.44
   1   3  -4  273.09    9.44
   1  -3  -4  270.70    8.15
   1   3   4  273.80    9.11
  -1   3   4  278.19    9.46
   1  -3   4  260.31    9.02
   1  -3  -4  276.87    5.75
   1  -3  -4  274.36    5.06
   1  -3  -5  825.73   15.20
  -1   3   5  813.37   11.01
   1   3   5  848.93   14.05
  -1   3   5  842.91   16.91
   1  -3  -5  817.73   17.38
   1  -3  -5  827.26   11.12
  -1   3  -5  853.04   16.76
   1  -3   5  815.59   16.58
  -1  -3  -5  831.57   16.24
   1   3   5  814.19   16.05
  -1  -3   5  833.59   17.00
   1   3   5  839.38   16.18
  -1  -3  -5  839.86   17.21
   1   3  -5  866.52   17.28
   1  -3  -5  812.15   14.19
   1  -3  -5  880.90   17.39
  -1  -3   5  815.88   14.34
  -1  -3  -5  819.39   13.88
   1   3   5  857.06   17.41
   1   3  -6  481.50   13.41
  -1  -3  -6  481.14   12.77
   1  -3  -6  498.67   13.56
  -1  -3   6  484.89   13.56
  -1  -3  -6  500.73   13.90
   1  -3  -6  483.71    9.45
   1   3   6  505.61   12.92
   1  -3  -6  492.13   12.55
   1  -3  -6  480.07   13.72
  -1   3  -6  501.23   13.49
  -1  -3   6  499.83   11.24
   1   3   6  485.44   12.66
   1   3   6  492.48   13.98
  -1   3   6  515.31   13.79
   1  -3  -6  486.40   11.71
  -1   3   6  480.56    9.35
   1  -3   6  477.78   13.49
  -1  -3  -6  491.37   11.18
   1  -3  -7   93.76    5.55
   1   3   7   97.22    6.00
   1  -3   7   93.37    6.57
   1   3   7  108.57    7.01
  -1  -3  -7  104.17    6.55
   1  -3  -7  106.20    6.59
  -1  -3   7   92.40    4.97
   1   3   7   95.59    5.82
  -1  -3  -7  104.36    6.39
  -1  -3  -7   98.75    5.50
   1  -3  -7   96.60    4.69
  -1  -3   7   93.88    6.50
   1  -3  -7   99.79    6.02
  -1   3   7   99.59    6.52
   1  -3   8 2623.98   34.25
  -1  -3  -8 2617.33   30.75
  -1  -3  -8 2575.28   28.71
  -1  -3   8 2597.90   25.46
   1  -3  -8 2616.59   20.97
   1  -3  -8 2597.14   26.08
   1  -3  -8 2712.42   32.69
  -1   3   8 2656.16   34.11
  -1  -3   8 2595.68   33.46
  -1  -3  -8 2632.48   32.32
   1   3   8 2652.61   34.88
  -1   3   9  285.86   11.84
   1  -3  -9  279.15    9.27
   1  -3   9  288.57   12.38
  -1  -3   9  274.00   11.48
  -1  -3  -9  278.93   10.70
  -1  -3  -9  290.12   11.22
  -1  -3  -9  276.45    9.83
   1  -3  -9  267.69    7.42
   1   3   9  281.48   12.08
  -1  -3  10  629.23   17.94
   1  -3 -10  611.89   11.93
  -1  -3 -10  651.56   17.36
  -1   3  10  653.49   18.27
   1   3  10  616.16   18.56
   1  -3 -10  648.18   14.84
  -1  -3 -10  634.70   16.08
   1  -3  10  631.18   18.25
   1   3  11   63.81    6.31
   1  -3 -11   57.07    4.98
  -1  -3 -11   61.93    5.59
   1  -3 -11   59.90    4.02
  -1  -3  11   59.97    6.17
  -1  -3 -11   61.52    5.86
   1  -3  11   65.89    6.52
  -1   3  11   57.60    5.89
  -1   3  12  100.48    8.07
  -1  -3 -12  107.49    7.90
  -1  -3  12  105.29    8.31
   1  -3 -12  101.91    6.66
   1   3  12  106.96    8.25
   1  -3 -12   97.27    5.42
  -1  -3 -12  107.66    7.04
   1  -3  12  100.33    8.09
  -1  -3 -13    5.70    2.49
   1  -3  13    5.24    3.79
  -1   3  13    4.55    2.51
   1  -3 -13    4.16    1.43
  -1  -3  13    5.58    3.08
   1   3  13    5.14    2.87
   1  -3 -13    7.54    2.56
  -1  -3 -13    3.71    2.43
  -1  -3 -14  104.09    7.48
  -1   3  14  113.17    9.07
  -1  -3  14  100.52    8.51
  -1  -3 -14  104.80    8.26
   1  -3 -14  107.56    6.37
   1  -3 -14   98.52    7.20
   1  -3  14  121.56    9.58
   1  -3  15    0.50    2.79
  -1  -3 -15    0.10    2.31
  -1  -3 -15   -0.08    2.38
   1  -3 -15    4.46    2.56
  -1   3  15   -1.51    2.51
  -1  -3  15   -4.59    3.48
  -1  -3  16    1.03    2.81
   1  -3  16   -2.64    3.50
  -1  -3 -16   -2.63    2.60
   1  -3 -16   -0.23    2.02
  -1  -3 -16    0.59    2.90
  -1  -3  17   42.28    6.35
  -1   3 -17   37.07    6.18
   1  -3 -17   39.75    5.35
   1  -3  17   40.02    6.22
  -1  -3 -17   40.06    5.75
  -1  -3 -17   39.82    5.30
   1  -3  18   40.46    6.90
   1  -3 -18   48.41    6.69
  -1  -3 -18   52.13    7.39
  -1  -3 -18   44.07    5.97
  -1   3 -18   43.66    7.14
  -1  -3  18   53.14    7.40
   1  -3  19  602.36   23.63
  -1  -3 -19  598.21   23.16
   1  -3 -19  614.84   21.65
  -1  -3  19  591.35   22.85
  -1  -3 -19  567.88   19.48
  -1   3 -19  591.78   24.25
   1  -3  20  139.46   12.41
  -1  -3 -20  127.64   12.01
   1  -3 -20  135.33   11.14
  -1   3 -20  135.62   12.40
  -1  -3  20  137.24   11.76
  -1  -3 -20  123.30    9.51
  -1   3 -21  142.15   12.58
  -1  -3 -21  120.81    9.68
  -1  -3  21  133.80   11.74
   1  -3 -21  130.87   11.03
  -1  -3 -21  135.20   11.67
  -1  -3  22   18.36    4.94
  -1  -3 -22   10.81    3.72
  -1   3 -22   13.93    5.29
   1  -3 -22   15.13    4.32
  -1  -3 -22   19.65    5.53
  -1  -3 -23   36.75    5.86
  -1  -3 -23   26.53    5.56
  -1  -3  23   23.54    5.61
   1  -3 -23   38.22    6.24
  -1   3 -23   33.77    7.11
   1  -3 -24    0.68    2.79
  -1  -3 -24    1.17    3.05
  -1   3 -24   -4.02    4.04
  -1  -3  24    2.61    2.97
   1   3 -24   -0.22    4.02
   1  -3 -24   -1.84    3.55
  -1  -3  25   42.80    7.71
  -1   3 -25   30.37    6.83
   1  -3 -25   32.99    6.11
   1   3 -25   26.82    6.20
   1  -3 -25   28.43    5.95
  -1  -3 -25   31.78    6.74
  -1  -3 -26   12.07    4.89
  -1  -3  26    7.77    4.14
   1   3 -26    9.80    4.93
  -1   3 -26   13.87    5.16
   1  -3 -26    9.40    3.68
   1  -3 -26   11.56    4.65
  -1  -3 -27    0.09    3.66
   1   3 -27    1.62    3.13
   1  -3 -27    4.23    3.68
  -1   3 -27   -2.90    4.59
  -1   3 -28   -3.61    5.00
   1   3 -28    1.12    3.49
  -1  -3 -28    0.44    2.83
   1  -3 -28   -1.69    3.72
   1  -3 -29    1.19    3.38
  -1  -3 -29   -2.15    4.23
   1  -3 -30   -3.83    3.97
   1   4   0    2.71    2.23
  -1  -4   0   -0.36    1.88
  -1  -4   0    1.68    1.81
  -1   4   0    0.81    1.37
  -1   4   0   -0.05    1.13
  -1   4   0    2.69    1.38
   1  -4   0   -0.69    1.21
  -1   4   0   -3.15    2.76
   1  -4  -1   12.53    2.55
  -1   4   1   13.29    1.71
  -1   4   1   19.37    3.65
  -1   4   1   12.18    1.55
   1   4  -1   14.66    2.73
  -1   4   1   13.70    1.98
  -1   4   1   14.89    2.62
   1   4   1   13.73    2.67
   1  -4   1   12.61    2.18
  -1  -4   1   14.95    2.73
  -1   4  -1   19.48    3.07
  -1  -4  -1   13.31    2.50
   1  -4  -1   22.88    2.30
   1   4  -1   13.00    1.19
   1   4   1   15.08    2.44
  -1  -4  -1   11.05    2.27
  -1   4  -1   17.42    3.56
  -1   4  -1   13.50    2.20
   1  -4  -2 1913.64   27.21
  -1   4   2 1920.96   18.62
   1   4   2 2003.94   25.15
   1   4   2 2001.64   26.69
  -1   4  -2 2012.08   24.42
   1   4  -2 1979.39   26.23
  -1  -4  -2 1983.83   26.43
   1  -4  -2 1942.68   19.02
  -1   4   2 1963.90   19.71
   1   4  -2 2025.14   26.72
   1  -4  -2 2002.35   27.12
  -1   4   2 1970.15   26.90
  -1  -4   2 1933.34   26.26
   1   4  -2 1852.65   12.70
  -1   4   2 1925.08   16.98
  -1   4  -2 1966.29   25.08
   1  -4   2 1949.28   23.85
   1  -4  -2 1914.11   19.46
  -1   4   2 1962.10   19.25
  -1   4   2 2013.84   27.72
   1   4  -3   33.58    2.17
   1   4  -3   31.74    3.57
  -1   4   3   27.75    3.44
   1   4   3   34.57    3.44
   1  -4   3   35.90    3.77
   1   4   3   36.38    3.01
  -1   4   3   26.93    3.31
   1   4  -3   41.88    4.43
  -1  -4  -3   34.77    3.79
  -1   4   3   32.80    2.76
  -1   4  -3   39.90    3.71
  -1  -4   3   37.52    4.13
  -1  -4  -3   42.09    3.94
   1  -4  -3   37.10    4.81
   1   4   3   35.40    4.12
  -1   4   3   30.96    2.23
   1  -4  -3   37.61    4.03
   1  -4  -3   33.08    2.76
  -1   4   3   37.45    2.78
   1  -4  -3   36.61    2.59
   1  -4  -3   37.53    2.99
  -1  -4  -4  724.81   16.94
   1  -4  -4  698.68   17.37
   1  -4  -4  684.59   10.39
  -1  -4   4  710.11   16.82
   1   4   4  702.46   12.82
   1  -4  -4  697.66   12.33
   1   4   4  738.81   15.72
  -1   4  -4  743.33   16.14
   1  -4  -4  696.29   13.32
   1  -4   4  718.88   16.03
   1   4   4  714.51   16.65
  -1  -4  -4  686.17   15.40
   1  -4  -4  713.58   16.78
  -1   4   4  689.96   10.44
   1   4   4  715.79   16.79
  -1   4   4  697.85   16.72
  -1  -4  -5  909.93   18.28
  -1   4   5  913.01   12.64
   1  -4  -5  907.80   14.83
   1   4   5  946.42   18.24
   1  -4  -5  906.98   11.74
   1   4   5  917.63   19.17
   1  -4   5  920.28   19.15
   1  -4  -5  927.57   20.26
   1   4   5  922.30   19.89
   1  -4  -5  924.97   16.30
   1   4   5  930.36   15.08
  -1  -4   5  934.80   19.98
   1  -4  -5  899.12   12.62
  -1   4   5  925.02   19.70
   1   4   6  483.84   14.96
  -1  -4  -6  474.87   11.18
  -1   4   6  474.85    9.66
  -1   4   6  494.80   14.84
   1  -4  -6  467.32   14.92
   1  -4  -6  484.98   12.70
   1  -4  -6  489.37   10.13
   1   4   6  495.78   13.52
  -1  -4   6  483.25   14.86
  -1  -4  -6  474.11   13.64
   1  -4  -6  485.90   11.59
   1  -4   6  481.32   14.47
   1   4   7 1110.93   23.27
   1  -4  -7 1089.28   16.16
   1  -4   7 1116.52   22.63
   1  -4  -7 1100.07   18.59
   1  -4  -7 1060.90   22.97
  -1  -4  -7 1096.86   17.77
   1  -4  -7 1062.31   10.68
  -1  -4  -7 1127.59   21.46
   1  -4  -7 1118.01   20.28
  -1   4   7 1078.68   22.61
  -1   4   7 1093.38   15.78
  -1  -4   7 1082.98   22.78
  -1  -4   7 1080.41   18.20
   1  -4   8 1857.78   30.43
   1  -4  -8 1856.91   30.81
  -1  -4  -8 1808.12   23.68
   1  -4  -8 1791.08   22.25
  -1   4   8 1828.58   21.86
   1  -4  -8 1826.86   25.33
  -1  -4  -8 1848.45   28.29
  -1   4   8 1845.90   30.69
  -1  -4   8 1794.67   30.37
  -1  -4   8 1813.38   23.61
   1   4   8 1867.38   31.03
   1  -4  -9 1590.76   24.94
  -1  -4   9 1581.66   21.83
   1  -4  -9 1596.29   22.32
  -1  -4  -9 1595.05   27.34
  -1  -4   9 1620.69   29.55
   1   4   9 1547.84   29.85
  -1   4   9 1587.51   22.04
   1  -4   9 1588.04   29.57
  -1  -4  -9 1572.19   23.33
  -1   4   9 1601.84   29.33
   1  -4  -9 1595.74   29.60
   1   4  10  455.03   16.51
   1  -4 -10  413.08    9.81
  -1  -4 -10  448.50   14.94
   1  -4 -10  424.13   12.22
  -1  -4 -10  415.47   12.59
  -1  -4 -10  431.91   14.87
  -1   4  10  421.03   15.79
   1  -4 -10  420.19   15.83
   1  -4  10  437.59   16.11
  -1  -4  10  412.13   11.11
   1  -4  10  378.46    6.12
  -1  -4  10  447.27   16.08
   1  -4 -11    6.08    3.09
   1  -4  11    5.76    3.33
  -1  -4 -11    5.32    2.03
  -1  -4 -11    9.24    3.83
  -1  -4  11    8.14    3.07
  -1  -4 -11   13.78    4.36
   1  -4 -11    6.68    2.04
  -1   4  11    8.63    3.36
   1   4  11    9.12    3.37
  -1  -4  12   72.15    7.22
   1   4  12   74.65    7.41
   1  -4 -12   70.07    4.58
  -1  -4 -12   75.97    6.81
   1  -4  12   77.21    7.29
   1  -4 -12   71.65    5.59
  -1  -4 -12   75.11    5.97
  -1  -4 -12   77.36    7.27
  -1   4  12   65.75    6.95
   1  -4 -12   64.78    6.48
   1   4  13   77.04    7.82
  -1  -4 -13   80.75    7.34
  -1  -4 -13   81.14    7.18
   1  -4 -13   67.66    7.01
  -1  -4 -13   76.89    6.28
   1  -4 -13   74.92    4.94
  -1  -4  13   78.92    7.69
   1  -4 -13   75.97    6.23
   1  -4  13   80.05    7.95
  -1   4  13   68.92    7.37
   1  -4  14  380.13   17.21
  -1  -4 -14  379.04   14.83
   1   4  14  348.06   16.61
   1  -4 -14  350.67   13.66
  -1  -4 -14  351.53   13.66
  -1  -4  14  355.97   16.28
  -1   4  14  355.80   16.42
   1  -4 -14  352.62   11.25
  -1  -4 -14  363.77   15.48
   1  -4 -14  353.39   15.77
   1  -4 -15   20.66    4.45
  -1   4  15   21.22    4.77
  -1  -4  15   17.79    4.49
   1  -4  15   26.84    5.80
   1  -4 -15   24.96    3.29
  -1  -4 -15   20.80    4.55
   1   4  15   19.31    4.39
   1  -4 -15   20.36    3.97
  -1  -4 -15   21.87    4.57
   1  -4  16   39.93    6.74
   1   4  16   24.56    5.05
  -1  -4 -16   37.24    5.85
   1  -4 -16   30.01    4.56
   1  -4 -16   25.64    4.43
  -1  -4  16   33.26    5.65
  -1  -4 -16   40.53    5.55
  -1   4  16   30.71    5.50
  -1  -4  17  265.67   15.14
   1  -4  17  251.35   15.29
   1  -4 -17  252.27   14.24
  -1  -4 -17  237.48   13.07
   1  -4 -17  252.67   13.10
  -1   4  17  250.51   15.25
  -1  -4 -17  277.75   14.85
  -1  -4 -18  152.92   10.53
  -1  -4 -18  166.96   12.28
   1  -4 -18  154.89   10.65
   1  -4  18  171.58   13.01
   1  -4 -18  149.53   11.46
  -1  -4  18  157.38   12.17
   1  -4 -19  115.04    9.51
   1  -4 -19  104.38    9.66
  -1  -4 -19  100.24   10.04
   1  -4  19  109.63   10.82
  -1  -4 -19  104.27    8.89
  -1   4 -19  115.44   11.20
  -1  -4  19  111.46   10.58
  -1  -4  20    1.21    3.57
   1  -4  20    7.43    4.93
  -1   4 -20    3.66    4.17
   1  -4 -20   -1.27    4.04
  -1  -4 -20    5.06    3.73
   1  -4 -20    0.05    2.43
  -1  -4 -20    0.47    3.10
   1  -4 -21   38.27    5.89
  -1   4 -21   55.12    8.17
  -1  -4 -21   53.50    7.10
   1  -4  21   39.21    7.06
  -1  -4  21   50.08    7.78
   1  -4 -21   39.11    5.86
  -1  -4 -21   47.95    7.35
  -1  -4 -22   33.84    6.56
   1  -4 -22   30.48    5.72
   1  -4  22   37.81    7.26
   1  -4 -22   28.95    6.06
  -1  -4 -22   33.56    5.68
  -1   4 -22   42.99    7.79
  -1  -4  22   36.23    7.29
  -1  -4 -23  200.85   15.12
   1  -4 -23  183.23   14.05
  -1   4 -23  196.04   15.93
   1  -4  23  200.89   15.91
  -1  -4 -23  187.05   12.72
  -1  -4  23  192.72   15.20
   1  -4 -23  184.07   13.59
  -1  -4  24   10.59    5.25
  -1  -4 -24    8.98    4.76
   1  -4 -24    7.56    4.08
   1  -4 -24    1.71    2.72
  -1   4 -24    5.63    4.49
  -1  -4 -25    1.14    3.18
   1  -4 -25    0.62    2.64
   1  -4 -25   -0.69    3.43
  -1   4 -25   -3.83    4.28
  -1  -4  25   -0.22    3.19
   1  -4 -26   13.67    4.54
  -1   4 -26   12.06    5.25
   1   4 -26   11.89    4.43
  -1  -4 -26   10.37    4.57
  -1  -4  26   19.51    5.85
   1  -4 -26    3.34    3.04
  -1   4 -27   10.69    4.95
  -1  -4  27   18.45    5.75
   1   4 -27   19.59    5.99
  -1  -4 -27   20.78    6.14
   1  -4 -27   15.95    5.10
  -1  -4 -28    7.17    4.98
   1  -4 -28   -3.67    3.88
  -1  -4  28   -0.42    3.55
   1  -4 -29   -0.73    3.33
  -1  -4 -29    2.23    3.09
  -1  -5   0    0.47    1.92
  -1   5   0    0.49    1.24
   1   5   0    2.23    2.67
  -1   5   0   -1.11    3.04
  -1   5   0    1.32    1.07
  -1   5   0   -0.45    1.06
   1  -5   0   -0.67    1.63
   1   5  -1  648.92    7.86
  -1   5  -1  684.87   11.63
   1   5   1  686.67   17.44
  -1  -5  -1  675.28   16.46
  -1   5   1  689.00   17.86
   1   5   1  690.56   16.18
  -1   5   1  699.76   11.76
  -1   5  -1  697.07   18.12
  -1   5   1  680.89   14.04
  -1  -5   1  687.45   16.88
   1  -5  -1  677.85   13.69
  -1   5  -1  700.28   15.31
  -1   5   1  674.03   11.46
   1  -5   1  667.32   14.78
   1   5  -1  710.46   17.38
  -1  -5   2   -0.54    2.63
  -1   5   2    3.18    1.21
  -1   5   2    3.16    1.15
   1   5  -2    1.90    2.29
   1   5   2   -1.71    3.02
  -1   5   2    4.56    1.28
  -1   5   2    6.63    3.14
  -1  -5  -2    1.75    1.76
  -1   5  -2    5.00    2.06
   1   5   2    3.12    1.41
   1  -5  -2    3.20    1.56
  -1   5   2    5.42    1.38
  -1   5  -2    0.03    2.42
   1  -5   2    2.71    1.62
   1   5   3   28.02    3.32
   1  -5  -3   38.39    5.50
   1   5   3   31.58    3.74
   1   5  -3   31.87    4.43
   1  -5   3   32.43    3.83
  -1   5   3   28.53    3.78
  -1  -5   3   33.61    4.22
   1  -5  -3   34.25    3.06
  -1   5   3   35.95    2.81
   1   5   3   38.80    3.22
   1   5  -3   33.61    1.99
   1  -5  -3   32.78    2.91
  -1   5   3   31.36    2.63
  -1   5   3   30.09    2.73
   1   5   4   72.40    6.08
  -1   5   4   61.65    5.34
   1  -5  -4   77.11    4.29
   1  -5   4   82.35    6.16
  -1   5   4   72.75    3.95
   1   5   4   69.25    4.37
   1  -5  -4   74.86    6.76
  -1  -5   4   69.60    6.15
   1  -5  -4   76.31    4.18
   1  -5  -4   67.89    4.28
   1   5   4   71.78    5.23
   1   5  -4   75.54    6.35
  -1   5   5   84.96    6.66
  -1  -5  -5   83.36    5.81
   1  -5  -5   84.08    4.61
  -1   5   5   82.73    4.28
   1  -5  -5   86.80    4.41
   1   5   5   87.90    6.88
  -1  -5   5   87.42    6.82
   1  -5  -5   83.51    5.00
   1   5   5   91.23    5.01
   1  -5  -5   82.71    7.08
   1  -5   5   83.91    6.33
  -1  -5   6   63.32    6.29
  -1  -5  -6   68.42    5.59
   1   5   6   65.92    6.26
   1  -5  -6   67.62    3.88
   1   5   6   65.29    4.34
   1  -5  -6   65.78    6.57
  -1   5   6   65.48    5.93
   1  -5  -6   70.08    4.52
   1  -5   6   68.64    6.12
  -1   5   6   67.68    4.03
   1  -5  -6   67.21    4.82
   1  -5  -6   64.28    4.04
   1  -5   7   -0.50    2.65
   1  -5  -7    1.22    1.23
  -1  -5   7    1.56    2.76
  -1   5   7   -0.25    2.40
  -1  -5  -7    0.54    2.17
   1  -5  -7    0.04    1.29
   1  -5  -7    3.80    3.15
   1   5   7   -0.61    2.32
   1  -5  -7    2.27    1.95
   1  -5  -7    1.57    1.29
  -1   5   7    0.16    0.79
  -1  -5  -8  693.98   18.28
  -1   5   8  712.36   20.36
   1  -5   8  706.30   19.99
  -1   5   8  708.85   14.11
  -1  -5  -8  682.03   14.60
   1  -5  -8  669.74   14.31
  -1  -5   8  717.22   20.35
  -1  -5   8  690.02   16.00
   1   5   8  697.23   20.45
   1  -5  -8  637.39    7.86
   1  -5  -8  698.79   15.53
   1  -5  -8  719.90   20.50
   1  -5   9  961.37   24.11
  -1  -5  -9  987.90   22.73
  -1  -5   9  974.04   18.89
  -1  -5  -9  973.14   18.16
  -1   5   9  987.83   17.59
   1  -5  -9  971.91   17.97
  -1   5   9  995.45   24.55
   1  -5  -9  971.39   24.79
   1  -5  -9  991.03   19.66
  -1  -5   9  996.20   24.52
   1  -5  -9  953.81   11.72
   1   5   9  956.78   24.71
   1  -5 -10    0.48    1.62
   1  -5 -10    1.57    1.59
  -1   5  10    0.45    0.89
  -1  -5 -10    1.01    2.52
   1  -5 -10    1.35    2.66
   1  -5  10    3.68    3.12
  -1   5  10    0.40    2.85
  -1  -5 -10    3.12    2.10
  -1  -5  10    1.52    2.68
   1   5  10    2.06    2.55
   1  -5 -10    1.78    0.90
  -1  -5  10    1.65    1.44
  -1   5  11  128.25    9.46
   1  -5 -11  127.02    7.83
  -1   5  11  125.92    6.96
  -1  -5 -11  123.53    8.36
   1  -5  11  127.41    4.56
   1  -5 -11  128.84    9.52
  -1  -5  11  129.66    6.89
   1  -5 -11  130.07    5.50
   1  -5  11  126.72    9.62
  -1  -5 -11  130.27    7.34
   1  -5 -11  130.94    7.39
  -1  -5  11  129.99    9.74
   1   5  11  134.44    9.88
  -1  -5 -12    1.52    2.87
  -1  -5 -12   13.87    4.49
   1  -5  12    5.18    0.84
  -1  -5  12    5.67    3.35
  -1  -5 -12    7.71    2.42
   1  -5 -12    7.81    1.71
   1  -5 -12    3.40    2.19
   1  -5 -12    7.86    2.65
   1  -5  12    3.03    3.03
  -1   5  12    6.08    3.22
   1  -5 -12    6.76    3.43
  -1  -5  12    2.83    1.23
   1   5  12    2.64    2.60
   1  -5 -13   33.94    4.80
  -1  -5  13   36.97    5.92
  -1  -5 -13   44.56    6.09
  -1  -5 -13   51.93    6.62
   1  -5 -13   38.80    4.67
  -1  -5 -13   40.34    4.76
   1  -5 -13   35.99    3.51
   1  -5  13   28.99    4.82
   1  -5 -13   39.18    6.01
  -1   5  13   33.98    5.84
   1   5  13   30.05    5.36
   1  -5 -14  172.48    9.79
   1  -5 -14  170.35   11.79
  -1  -5  14  182.42   12.32
  -1  -5 -14  199.08   11.91
   1   5  14  161.31   11.81
  -1  -5 -14  206.82   11.97
   1  -5 -14  175.08    7.91
  -1  -5 -14  184.53   10.06
  -1   5  14  177.48   12.11
   1  -5  14  159.72   11.44
   1  -5  15   86.72    8.94
  -1  -5  15   83.95    8.73
   1   5  15   87.52    9.08
  -1  -5 -15   87.27    7.08
  -1  -5 -15   99.07    8.90
   1  -5 -15   90.89    7.39
   1  -5 -15   91.95    8.69
  -1   5  15   91.28    9.01
  -1  -5 -15   95.98    8.66
   1  -5  16   69.28    8.46
   1   5  16   72.80    8.64
  -1  -5 -16   67.70    6.59
  -1  -5 -16   72.05    7.81
  -1   5  16   63.35    7.77
  -1  -5 -16   76.93    7.73
   1  -5 -16   65.87    6.65
   1  -5 -16   64.36    7.67
  -1  -5  16   56.34    7.41
   1  -5 -17   51.94    6.11
  -1  -5 -17   44.45    5.60
   1  -5  17   47.24    7.36
  -1  -5 -17   46.73    6.66
   1  -5 -17   38.84    6.49
   1   5  17   46.44    7.18
  -1  -5  17   46.62    7.31
  -1  -5 -17   41.82    6.10
  -1   5  17   50.00    7.21
  -1  -5 -18   -0.17    2.62
   1  -5 -18   -5.41    4.11
   1   5  18   -2.25    3.18
  -1  -5 -18   -0.96    2.72
  -1   5  18   -1.92    3.35
   1  -5  18   -1.51    3.35
   1  -5 -18    2.11    2.58
  -1  -5  18    0.19    2.90
  -1  -5 -18   -0.17    2.18
   1  -5 -19   35.92    5.49
  -1  -5  19   44.64    7.13
  -1  -5 -19   40.43    6.16
  -1   5  19   41.71    7.08
  -1  -5 -19   38.06    5.45
  -1  -5 -19   39.70    6.45
   1  -5 -19   36.09    6.43
   1  -5  19   42.67    7.21
  -1  -5 -20   74.98    8.37
  -1  -5 -20   55.48    6.81
  -1  -5 -20   68.97    8.59
   1  -5 -20   62.73    7.37
   1  -5 -20   63.35    8.16
   1  -5  20   57.89    8.47
  -1  -5  20   64.92    8.99
  -1  -5 -21   58.05    7.70
   1  -5  21   54.01    8.62
  -1  -5 -21   53.66    6.99
  -1   5 -21   51.93    8.35
   1  -5 -21   39.58    6.92
  -1  -5  21   53.72    8.50
   1  -5 -21   47.71    6.70
  -1  -5 -21   50.33    7.59
  -1  -5 -22   20.08    5.10
   1  -5  22   27.30    7.05
  -1  -5  22   24.64    6.19
  -1  -5 -22   22.88    5.02
  -1  -5 -22   26.84    6.10
   1  -5 -22   21.18    5.45
  -1   5 -22   15.46    5.38
   1  -5 -22   18.86    4.65
   1  -5 -23   13.57    4.59
  -1  -5 -23   15.41    4.31
  -1  -5 -23   14.64    4.75
  -1  -5 -23   15.42    4.73
   1  -5  23    4.82    3.29
  -1   5 -23   12.10    4.56
  -1  -5  23   12.05    4.97
   1  -5 -23   11.28    3.77
  -1  -5 -24   -3.94    3.33
   1  -5  24   -4.32    4.18
   1  -5 -24   -6.98    4.54
  -1  -5  24   -4.43    4.69
  -1  -5 -24    1.83    2.75
  -1   5 -24    2.10    3.77
   1  -5 -24   -0.71    2.74
  -1  -5  25    5.79    3.59
   1  -5 -25    0.80    2.92
   1  -5 -25    0.53    2.78
  -1  -5 -25    4.27    3.70
   1  -5  25   -2.32    4.83
  -1   5 -25   -0.90    4.19
  -1  -5  26   20.24    5.90
   1  -5 -26   21.19    5.73
  -1   5 -26   18.78    5.76
  -1  -5 -26   29.76    6.72
   1  -5 -26   14.69    4.59
  -1  -5  27    3.95    3.44
  -1  -5 -27   -0.30    3.23
   1  -5 -27    0.20    3.14
  -1  -5 -28    2.78    3.95
  -1  -5  28   -0.73    3.58
   1  -5 -28   -3.88    3.98
  -1  -5 -29    8.07    4.36
   1  -5 -29   10.35    3.94
   1  -6   0   -1.43    1.74
  -1   6   0    0.37    1.26
   1   6   0    3.71    2.78
  -1   6   0   -2.19    1.82
  -1   6   0    2.25    1.27
  -1  -6   0   -1.26    2.28
  -1   6   1 2024.86   33.28
  -1   6   1 1878.31   19.97
   1   6   1 2022.71   32.59
  -1   6  -1 2002.51   33.35
  -1  -6  -1 1990.84   30.30
  -1  -6   1 2005.35   31.44
  -1   6  -1 1958.50   20.23
  -1   6   1 2006.63   26.52
   1   6  -1 2031.80   32.60
   1  -6  -1 1949.38   26.18
  -1   6   1 2010.74   20.20
   1  -6   1 1951.01   27.83
  -1   6   2   16.28    1.99
   1  -6   2   15.75    2.67
  -1   6   2   22.42    2.73
  -1  -6  -2   22.67    3.85
   1  -6  -2   17.58    2.81
  -1  -6   2   20.13    4.06
  -1   6  -2   12.78    3.56
   1   6   2   10.62    2.96
  -1   6   2   20.39    2.12
  -1   6   2   12.70    3.83
   1   6  -2   16.18    3.68
   1   6   3  441.25   15.69
  -1   6   3  473.34   16.51
  -1   6   3  465.69   11.29
   1   6  -3  426.86    6.06
  -1  -6  -3  464.91   14.45
   1  -6  -3  468.37   12.07
  -1  -6   3  477.50   15.89
   1  -6  -3  463.63   10.63
   1   6  -3  486.10   16.27
  -1   6  -3  472.28   16.57
  -1  -6  -3  423.35    6.34
  -1   6   3  456.14    9.72
   1  -6   3  457.76   14.61
   1  -6  -4   30.08    2.93
  -1   6  -4   34.05    5.46
  -1   6   4   26.37    2.73
  -1  -6  -4   26.48    3.85
   1   6  -4   28.21    2.05
   1   6   4   29.88    4.83
  -1  -6   4   27.51    4.44
   1  -6   4   29.26    4.28
   1  -6  -4   29.08    3.13
   1   6   4   27.42    2.91
   1   6  -4   31.81    5.11
  -1  -6  -4   28.57    2.15
  -1   6   4   22.87    3.67
   1  -6  -5 1246.40   19.57
   1  -6   5 1303.62   26.09
   1   6  -5 1250.19   26.87
   1   6   5 1276.20   19.40
  -1   6   5 1298.01   18.63
   1  -6  -5 1274.05   18.94
  -1  -6   5 1268.51   27.17
   1  -6  -5 1314.96   28.26
   1  -6  -5 1249.90   17.64
  -1   6   5 1262.49   27.49
   1   6   5 1283.05   27.36
   1   6   6   32.09    4.86
   1  -6   6   32.39    5.01
  -1   6   6   27.77    4.50
   1  -6  -6   31.63    3.04
   1  -6  -6   32.28    3.10
  -1  -6   6   32.60    4.76
   1  -6  -6   25.90    3.01
  -1  -6  -6   30.10    2.05
  -1  -6  -6   31.59    4.19
  -1   6   6   29.55    2.88
   1  -6  -6   41.66    6.20
   1   6   6   32.31    3.11
  -1  -6   7  246.33   12.45
  -1  -6  -7  243.77   11.03
   1  -6  -7  232.20    8.35
   1  -6  -7  252.10   13.19
  -1   6   7  234.76   12.52
  -1   6   7  241.60    8.47
   1  -6   7  229.40   11.94
   1  -6  -7  235.21    9.52
   1   6   7  239.79   12.51
   1  -6  -7  234.22    7.97
   1  -6  -7  243.99    8.74
  -1   6   8  126.33    6.28
   1  -6   8  121.63    9.15
   1  -6  -8  128.29    6.59
  -1   6   8  126.31    9.46
   1  -6  -8  128.37    6.01
   1  -6  -8  122.38    6.73
   1  -6  -8  132.15   10.02
   1   6   8  113.91    9.03
  -1  -6  -8  131.25    8.42
  -1  -6   8  131.68    9.61
  -1  -6   9  600.08   20.44
   1  -6  -9  590.52   15.26
  -1   6   9  600.74   20.64
  -1   6   9  609.19   14.37
  -1  -6  -9  611.57   18.61
   1   6   9  579.73   20.46
   1  -6  -9  609.65   20.73
  -1  -6   9  612.27   16.31
   1  -6   9  597.36   20.15
   1  -6  -9  604.89   14.64
  -1  -6  10  123.72    9.80
  -1   6  10  125.95    6.86
   1  -6  10  116.63    9.56
  -1  -6 -10  125.28    6.91
  -1  -6  10  127.04    7.62
   1  -6 -10  121.46    7.04
   1  -6 -10  120.25    7.37
   1  -6 -10  136.87   10.42
  -1   6  10  123.65    9.60
   1   6  10  126.25    9.78
  -1  -6 -10  126.72    8.95
   1  -6 -11  380.14   13.47
  -1   6  11  376.19   17.10
   1  -6 -11  366.04   12.58
  -1  -6 -11  380.58   15.37
   1  -6 -11  402.77   17.70
  -1  -6 -11  377.47   12.32
  -1  -6  11  384.46   12.74
  -1  -6  11  380.76   17.34
   1   6  11  398.76   17.72
   1  -6  11  387.51   17.17
   1  -6 -11  372.11    7.96
   1  -6 -12  373.32    9.04
  -1  -6 -12  394.98   16.39
   1  -6 -12  378.90   14.15
  -1  -6  12  411.49   18.19
   1  -6  12  389.00   17.78
   1  -6 -12  384.80   13.48
   1   6  12  399.87   18.22
  -1  -6  12  371.77   12.51
   1  -6 -12  391.23   17.70
  -1   6  12  388.94   18.05
   1  -6  12  379.70    9.13
  -1  -6 -12  367.32   12.59
  -1  -6  13  183.63   12.70
   1  -6 -13  176.96    9.45
   1  -6 -13  167.24   12.08
   1  -6 -13  163.89    9.88
  -1   6  13  175.84   12.54
  -1  -6 -13  172.61   10.88
  -1  -6  13  172.96    8.31
  -1  -6 -13  179.27    9.30
   1  -6  13  171.28   12.54
   1  -6 -13  174.64    6.82
   1   6  13  186.61   13.06
   1  -6  13  177.43    5.57
   1  -6 -14   35.83    6.52
   1  -6  14   19.67    5.13
  -1  -6  14   28.49    5.73
   1   6  14   23.69    4.92
   1  -6 -14   25.28    4.14
  -1  -6 -14   28.03    4.28
  -1   6  14   23.20    5.08
   1  -6 -14   27.12    3.11
   1  -6 -14   20.61    3.85
  -1  -6 -14   21.27    3.48
  -1   6  15  164.69   12.31
  -1  -6 -15  169.88    9.67
   1   6  15  172.60   12.95
   1  -6  15  158.61   12.29
  -1  -6  15  171.79   12.81
   1  -6 -15  179.18   10.48
   1  -6 -15  168.55   12.57
  -1  -6 -15  173.12   11.40
   1  -6 -15  164.49    7.60
   1  -6 -15  160.04   10.35
  -1  -6  16    3.35    3.61
  -1  -6 -16   -1.13    4.04
   1   6  16    3.56    3.42
   1  -6 -16    9.77    4.40
  -1   6  16    4.27    3.04
   1  -6 -16    6.78    1.89
   1  -6 -16   11.70    3.42
   1  -6  16    9.87    4.64
  -1  -6 -16    9.61    3.46
   1  -6 -16    2.85    2.58
  -1  -6  17   -2.01    4.03
  -1  -6 -17   -1.30    3.44
  -1  -6 -17   -0.32    1.90
   1  -6  17    2.81    3.97
   1  -6 -17    2.66    2.65
   1  -6 -17   -1.77    3.75
   1  -6 -17    0.35    1.40
   1  -6 -17   -4.19    3.15
   1   6  17    3.18    3.27
  -1   6  17    1.46    2.90
   1  -6 -18   18.99    4.28
  -1  -6  18   10.71    4.61
   1   6  18   11.13    3.49
  -1   6  18   15.90    4.64
  -1  -6 -18   18.45    4.32
   1  -6 -18   16.71    5.08
  -1  -6 -18   16.36    3.89
   1  -6  18   19.88    4.83
   1  -6 -18   22.99    4.71
   1  -6  19   -1.51    3.23
  -1  -6 -19    4.10    3.81
  -1  -6 -19    0.77    2.13
   1  -6 -19   -0.26    2.38
  -1  -6  19   -2.15    3.81
  -1  -6 -19   13.64    5.29
  -1   6  19   -1.10    3.31
   1  -6 -19   -0.36    2.35
   1   6  19   -2.43    4.59
   1  -6 -19    2.52    3.65
  -1  -6 -20  133.08   10.02
  -1  -6 -20  136.89   11.52
  -1  -6 -20  143.81   12.18
  -1   6  20  123.40   12.46
   1   6  20  130.83   12.69
   1  -6 -20  131.19   10.78
   1  -6 -20  146.14   12.87
  -1  -6  20  128.92   12.47
   1  -6  20  143.81   13.33
   1  -6 -20  113.63   10.48
  -1  -6 -21    0.13    2.17
  -1  -6 -21   10.12    4.74
   1  -6  21    0.92    3.38
  -1  -6  21    1.92    3.69
  -1   6  21   -1.85    3.04
   1  -6 -21    0.88    2.47
  -1  -6 -21    6.24    4.18
   1  -6 -21    5.59    4.43
   1  -6 -21   -1.93    3.09
  -1  -6 -22  105.02   10.58
   1  -6  22   94.46   11.38
   1  -6 -22   80.10    9.28
   1  -6 -22   96.15   10.84
  -1  -6 -22  100.71   10.58
   1  -6 -22   99.73    9.68
  -1  -6  22  101.86   11.72
  -1  -6 -23   21.43    5.36
  -1  -6 -23   12.66    5.09
  -1   6 -23   20.96    6.45
   1  -6  23   19.69    5.94
   1  -6 -23   18.38    5.05
   1  -6 -23    8.06    3.70
  -1  -6  23   18.70    5.96
   1  -6 -23   16.43    5.59
  -1   6 -24   26.33    7.08
  -1  -6 -24   29.50    6.56
  -1  -6  24   30.94    7.20
   1  -6 -24   25.07    6.27
   1  -6 -24   20.20    4.97
   1  -6  24   27.79    7.15
   1  -6  25   -3.76    4.43
  -1  -6 -25   13.26    5.32
   1  -6 -25   11.12    4.70
   1  -6 -25    0.94    2.83
  -1  -6  25    4.62    3.85
  -1   6 -25    4.28    3.91
  -1   6 -26   14.51    5.69
   1  -6  26    8.60    4.70
   1  -6 -26    7.56    3.75
  -1  -6 -26   11.21    4.57
   1  -6 -26   12.63    5.30
  -1  -6  26   10.48    5.08
   1  -6 -27   15.70    5.48
   1  -6 -27    5.46    3.85
  -1  -6 -27   16.91    5.97
  -1  -6 -28   62.56    9.83
   1  -6 -28   46.32    8.43
  -1  -6 -29    1.32    3.34
  -1   7   0    7.08    3.38
  -1   7   0    0.15    0.97
   1   7   0    3.87    3.16
  -1  -7   0   -1.03    2.50
  -1   7   0    0.75    0.87
   1  -7   0    0.96    1.72
   1   7   1  153.94   10.16
  -1   7  -1  164.96    5.89
  -1   7  -1  153.34   10.53
   1  -7   1  160.80    8.77
   1  -7  -1  160.46    8.43
  -1   7   1  154.72    5.76
  -1   7   1  162.29   10.73
  -1   7   1  157.88    5.77
  -1  -7   1  162.89    9.93
  -1  -7  -1  156.89    9.38
   1   7  -1  166.73   10.52
  -1  -7   2   25.05    4.63
   1  -7   2   18.65    3.43
   1   7   2   17.07    3.51
   1  -7  -2   19.85    3.36
  -1   7   2   19.67    2.15
   1   7  -2   24.07    4.42
  -1   7   2   21.18    2.89
  -1  -7  -2   19.89    3.90
  -1   7  -2   20.99    2.47
  -1   7   2   18.68    4.41
  -1   7  -2   21.41    4.53
  -1   7   3   21.27    2.72
  -1  -7   3   22.16    4.60
  -1   7  -3   29.04    5.66
  -1  -7  -3   18.68    3.59
   1   7   3   16.65    3.57
   1   7  -3   18.78    4.05
  -1   7   3   13.15    3.43
   1  -7   3   17.79    3.55
  -1   7   3   17.51    1.96
   1  -7  -3   16.21    2.77
   1  -7  -4  154.45    6.61
   1   7   4  151.32   10.28
   1  -7  -4  158.73    7.74
   1  -7   4  168.97    9.96
   1   7  -4  155.39   10.43
  -1   7   4  157.67    7.19
  -1  -7  -4  167.52    9.39
   1   7  -4  150.37    4.06
  -1   7  -4  174.08   11.26
  -1  -7   4  165.08   10.44
  -1  -7  -4  148.95    4.27
   1   7   4  158.25    7.26
  -1   7   4  152.73   10.30
  -1  -7   5  543.54   19.01
  -1   7   5  535.94   19.27
  -1  -7  -5  523.82   16.71
   1   7   5  539.71   13.18
   1  -7  -5  524.63   12.85
   1  -7   5  542.81   17.92
   1  -7  -5  528.13   13.73
  -1   7  -5  560.81   19.90
  -1   7   5  530.32   13.24
   1   7  -5  560.75   19.26
  -1  -7  -5  525.97    9.85
   1   7  -5  539.33    9.60
   1   7   5  546.53   19.40
  -1  -7  -6  154.63    9.06
   1  -7   6  156.74   10.16
   1  -7  -6  161.49    7.52
  -1  -7  -6  149.73    6.02
  -1  -7   6  162.36   10.69
  -1   7   6  152.89   10.74
   1   7  -6  161.27   11.00
   1  -7  -6  155.63    7.39
   1  -7  -6  160.86    6.87
   1   7   6  143.36   10.32
  -1   7   6  150.85    7.13
   1   7   6  152.10    7.00
   1   7   7   -0.24    1.33
  -1   7   7    1.40    1.10
   1  -7  -7    0.78    1.38
  -1   7   7   -0.47    2.92
   1  -7  -7    3.76    1.83
  -1  -7   7   -1.49    3.53
   1   7   7   -5.22    3.78
  -1  -7  -7    1.27    0.77
   1  -7   7   -3.05    3.13
   1  -7  -7   -1.80    1.74
  -1  -7  -8  137.25    5.25
   1  -7  -8  134.27    6.73
  -1   7   8  137.63    7.02
  -1   7   8  130.13   10.25
   1  -7  -8  140.13    6.93
   1  -7   8  135.03    9.97
   1   7   8  128.57   10.21
  -1  -7  -8  128.88    8.99
  -1  -7   8  139.46   10.20
   1  -7  -8  149.57   11.47
   1  -7  -9   42.76    4.12
  -1  -7   9   45.94    6.47
  -1  -7  -9   39.44    5.17
   1  -7  -9   41.32    6.98
  -1  -7  -9   39.04    3.21
   1  -7   9   46.73    6.25
  -1   7   9   43.03    4.06
   1  -7  -9   46.65    4.06
   1  -7  -9   44.17    4.40
   1   7   9   41.38    6.18
  -1   7   9   34.33    5.65
   1  -7 -10   74.58    5.85
  -1  -7 -10   76.19    7.26
  -1   7  10   72.59    8.07
   1  -7  10   80.92    8.69
  -1  -7  10   79.48    6.60
   1  -7 -10   74.43    5.75
   1   7  10   79.73    8.53
   1  -7 -10   78.06    5.32
   1  -7 -10   94.09    9.71
  -1  -7  10   74.14    8.07
  -1   7  11   10.22    4.47
   1  -7  11    4.78    3.18
   1  -7 -11    9.88    2.97
   1  -7 -11   10.45    3.13
   1   7  11   12.58    4.68
  -1  -7  11   10.32    5.02
  -1  -7 -11    8.87    3.70
   1  -7 -11   23.38    6.47
  -1  -7  11    9.29    3.05
   1  -7 -11    9.45    2.29
   1  -7 -12    5.30    2.61
  -1  -7 -12   13.46    4.37
   1   7  12   19.87    6.13
   1  -7 -12   15.72    6.01
   1  -7 -12    5.14    2.66
  -1  -7  12    7.28    2.56
  -1   7  12   -0.30    3.40
  -1  -7  12    6.26    4.51
   1  -7  12    0.10    3.56
  -1  -7  13  296.13   17.05
   1  -7 -13  294.92   12.43
  -1  -7  13  297.98   11.89
   1  -7 -13  287.54   12.70
  -1  -7 -13  315.97   15.50
   1  -7  13  296.47    9.11
  -1  -7 -13  300.75   11.51
   1  -7 -13  298.03   17.03
  -1   7  13  300.27   17.19
   1   7  13  285.59   16.67
   1  -7  13  304.21   16.94
  -1  -7 -14  431.80   14.32
  -1  -7  14  436.91   14.09
  -1  -7  14  433.39   20.84
   1  -7  14  464.15   21.11
   1   7  14  462.60   21.35
   1  -7 -14  434.71   16.29
   1  -7 -14  458.64   16.10
   1  -7 -14  465.18   20.82
  -1  -7 -14  422.32   18.38
  -1   7  14  455.87   21.15
   1   7  15    4.20    3.83
   1  -7  15    2.21    3.51
  -1   7  15    3.65    3.74
  -1  -7 -15    4.15    3.33
   1  -7 -15   12.04    5.28
   1  -7 -15    5.38    2.51
   1  -7 -15    5.60    2.93
  -1  -7  15    7.85    4.44
  -1  -7 -15    2.61    2.45
  -1  -7  16    1.86    3.26
  -1   7  16    1.23    2.89
  -1  -7 -16   -0.70    2.61
   1  -7  16    3.90    3.75
   1   7  16    4.36    3.72
   1  -7 -16    0.08    2.04
  -1  -7 -16    2.29    2.10
   1  -7 -16    4.97    4.42
   1  -7 -16    3.74    2.91
  -1   7  17  173.24   13.85
   1  -7 -17  172.97   11.00
   1  -7 -17  168.60   13.57
  -1  -7 -17  176.27   12.53
   1  -7 -17  169.46   11.62
   1   7  17  157.06   13.71
  -1  -7  17  168.18   13.87
   1  -7  17  182.86   14.36
  -1  -7 -17  172.49   10.10
   1  -7 -18   55.59    7.12
   1  -7 -18   63.34    9.11
   1  -7 -18   50.78    6.16
  -1  -7 -18   63.05    7.91
  -1   7  18   66.18    9.25
   1   7  18   54.48    8.42
  -1  -7  18   55.04    8.50
   1  -7  18   65.04    9.12
   1  -7 -19   88.20    8.30
  -1  -7 -19   92.18    9.70
   1  -7 -19   84.92    8.81
   1  -7 -19   93.10   10.68
  -1  -7  19   95.07   11.04
   1   7  19  104.80   11.59
   1  -7  19  105.07   11.51
  -1   7  19   88.72   10.73
  -1  -7  20    3.30    3.82
  -1   7  20    4.44    3.94
   1   7  20    3.11    3.42
  -1  -7 -20   -2.91    4.07
   1  -7 -20    0.16    2.18
   1  -7 -20    5.38    3.28
   1  -7  20    3.29    3.88
   1  -7 -20    2.29    3.84
   1  -7 -21    6.98    4.70
  -1  -7  21   -1.56    4.04
   1   7  21    3.67    3.43
   1  -7  21    5.15    4.32
  -1  -7 -21    0.43    4.02
  -1   7  21    0.95    3.41
   1  -7 -21    0.86    2.36
   1  -7  22    6.21    3.95
   1  -7 -22    1.11    2.45
  -1   7  22    2.83    3.92
   1  -7 -22    3.61    4.12
  -1  -7  22   -1.65    3.88
  -1  -7 -22   -6.46    4.22
  -1  -7 -23   45.58    7.61
   1  -7 -23   35.93    6.54
   1  -7  23   49.40    9.22
   1  -7 -23   50.13    8.61
  -1  -7  23   39.42    8.30
  -1   7 -24    8.17    4.99
   1  -7 -24   -1.87    2.83
   1  -7  24   -8.16    5.13
  -1  -7 -24   -3.66    4.16
   1  -7 -24   -1.57    2.70
  -1  -7  24   -1.04    3.39
  -1  -7 -25   -4.42    4.01
  -1  -7  25    1.77    4.21
   1  -7  25   -0.33    3.59
   1  -7 -25    4.15    4.39
  -1   7 -25    5.27    5.06
   1  -7 -26    6.28    4.82
  -1  -7 -26   -1.94    3.88
   1  -7 -27   26.88    7.13
  -1   8   0   -0.90    1.11
  -1   8   0    7.26    4.55
  -1   8   0   -1.77    1.42
   1  -8   0    1.13    2.33
   1   8   0   -1.21    3.29
  -1  -8   0    0.38    3.11
   1  -8  -1  944.80   21.81
  -1   8   1  900.38   14.01
  -1   8   1  965.10   26.91
   1  -8   1  919.02   22.69
  -1  -8   1  988.71   25.23
  -1   8  -1  940.60   13.93
  -1   8   1  925.25   13.67
   1   8   1  923.62   26.32
  -1  -8  -1  920.38   24.25
  -1   8  -1  915.03   15.58
  -1   8  -1  939.45   26.68
   1   8  -1  963.59   26.33
  -1   8   2  152.53    5.59
  -1   8  -2  160.81    6.02
   1  -8   2  156.24    9.76
  -1   8   2  149.11   10.80
   1   8  -2  150.17    4.25
  -1   8  -2  152.06   11.18
   1  -8  -2  170.77    9.15
  -1  -8  -2  161.09   10.01
   1   8  -2  170.48   11.43
   1   8   2  176.32   11.50
  -1  -8   2  183.61   11.34
  -1   8  -3   17.09    4.20
   1  -8  -3   17.14    3.14
  -1   8   3   22.05    3.05
  -1  -8  -3   16.40    3.46
  -1   8  -3   22.37    2.54
   1   8   3   12.85    3.16
   1  -8   3   21.63    3.92
  -1  -8   3   14.86    3.78
   1   8  -3   13.97    3.36
  -1   8   3   14.08    3.51
  -1  -8   4   15.29    4.44
  -1   8  -4   16.25    5.15
   1   8  -4    5.14    3.57
  -1  -8  -4   16.15    3.73
  -1   8   4   14.07    2.55
  -1   8   4    3.63    3.88
   1   8   4    7.03    3.53
   1   8   4    9.52    1.95
   1  -8  -4   14.16    2.98
   1  -8   4   13.95    3.64
  -1   8   4    7.65    0.96
   1   8   5  874.41   17.56
   1  -8  -5  820.58   15.96
  -1  -8  -5  884.73   22.91
  -1  -8  -5  790.18   10.70
   1   8   5  902.89   26.51
  -1   8   5  874.65   26.55
  -1   8  -5  940.17   27.36
   1  -8  -5  867.87   19.28
   1  -8   5  890.46   24.49
  -1   8   5  865.59   18.21
   1   8  -5  892.66   26.17
  -1  -8   5  905.28   25.70
   1   8  -5  800.21   10.15
   1   8   6   63.27    7.57
  -1   8  -6   62.72    8.56
   1   8   6   51.26    4.26
  -1   8   6   51.12    4.55
  -1  -8  -6   62.00    6.51
  -1   8   6   59.06    7.45
   1  -8  -6   53.19    4.47
   1  -8  -6   49.28    4.73
   1  -8   6   52.20    6.71
  -1  -8   6   54.73    7.17
   1   8  -6   50.21    3.18
   1   8  -6   76.62    8.62
  -1  -8  -6   51.37    3.36
   1   8  -7  191.61    7.09
  -1  -8  -7  205.36   11.50
   1  -8   7  206.74   12.73
  -1   8  -7  221.63   14.20
   1   8  -7  228.08   13.74
  -1  -8   7  193.83   12.73
  -1   8   7  193.52    8.78
   1   8   7  199.51   13.14
  -1   8   7  192.03   12.84
   1  -8  -7  201.14    9.13
   1   8   7  206.89    8.47
   1  -8  -7  199.55    8.87
  -1  -8  -7  211.57    7.55
   1  -8  -8   11.59    2.52
  -1  -8  -8   14.96    4.31
   1   8  -8   22.13    6.71
  -1   8   8    5.01    3.45
  -1  -8   8   13.80    5.31
  -1  -8  -8    7.42    1.78
   1  -8  -8    4.62    1.66
  -1  -8  -8    8.18    1.16
   1  -8   8    7.30    3.51
   1   8   8   14.12    4.98
  -1   8   9 1521.85   36.53
  -1  -8  -9 1420.06   16.40
   1  -8  -9 1446.29   22.90
   1   8   9 1511.70   36.37
  -1  -8   9 1492.09   35.65
   1  -8   9 1476.35   34.55
  -1  -8  -9 1397.11   23.34
   1  -8  -9 1485.65   24.03
   1  -8  10   44.37    7.33
   1  -8 -10   35.90    3.92
  -1  -8  10   44.93    7.45
  -1  -8 -10   42.71    6.09
  -1   8  10   36.40    7.19
   1  -8 -10   43.38    4.41
   1   8  10   48.90    7.80
  -1  -8 -10   39.33    3.31
  -1  -8  11   29.55    6.78
  -1   8  11   19.72    4.82
  -1  -8 -11   24.56    2.99
   1  -8 -11   17.43    3.02
   1   8  11   13.71    4.21
   1  -8 -11   20.80    3.00
   1  -8  11   27.07    5.77
  -1  -8  11   25.42    4.36
   1  -8 -11   19.07    3.63
  -1  -8 -11   24.88    5.29
  -1   8  12  221.30   14.89
  -1  -8 -12  230.68    9.26
   1  -8 -12  229.46    9.51
   1   8  12  230.31   15.29
  -1  -8  12  245.74   11.91
  -1  -8 -12  246.12   13.50
   1  -8  12  251.58   15.42
  -1  -8  12  249.58   15.73
   1  -8 -12  226.72   10.72
   1  -8 -12  251.77   16.23
   1  -8 -12  239.10   10.93
  -1  -8 -13   85.29    8.72
   1  -8 -13   85.30    5.84
  -1   8  13   74.16    8.70
  -1  -8  13   83.47    6.77
  -1  -8 -13   81.66    5.95
  -1  -8  13   89.83   10.10
   1   8  13   89.01    9.89
   1  -8 -13   84.41    6.92
   1  -8 -13   86.52    7.01
   1  -8 -13  106.61   11.13
   1  -8  13   73.03    8.85
   1  -8  14   -0.99    3.53
   1  -8 -14    7.98    2.86
  -1   8  14    5.99    3.71
  -1  -8  14   -0.87    3.97
   1  -8 -14    5.76    2.55
  -1  -8 -14    5.45    1.94
  -1  -8  14    6.24    2.46
  -1  -8 -14    1.50    3.07
   1   8  14    5.84    3.61
   1  -8  15   71.87    9.60
   1  -8 -15   69.61    6.74
   1  -8 -15   66.71    6.53
  -1  -8 -15   66.50    7.58
   1  -8 -15   71.81    9.65
   1   8  15   72.25    9.45
  -1   8  15   56.96    8.34
  -1  -8  15   68.52    8.91
   1  -8  16    3.80    4.17
  -1  -8 -16    5.37    3.40
  -1   8  16    3.65    3.44
   1   8  16    4.79    4.40
   1  -8 -16   12.21    5.10
   1  -8 -16    4.81    2.73
  -1  -8  16   -1.38    4.07
   1  -8 -16    2.80    2.56
   1  -8 -17  136.58   12.97
  -1  -8 -17  107.55   10.40
  -1   8  17  100.09   11.29
   1  -8 -17  120.89    9.33
   1   8  17  118.30   12.31
   1  -8 -17  103.51    8.75
   1  -8  17  115.08   12.20
  -1  -8  17  114.36   11.96
   1   8  18    0.37    3.19
  -1  -8 -18    1.60    3.56
  -1  -8  18    2.14    3.86
   1  -8 -18    5.16    2.99
   1  -8  18    4.89    4.82
  -1   8  18    1.50    3.72
  -1  -8  19  195.61   16.32
   1  -8 -19  216.19   16.52
  -1   8  19  204.84   16.46
  -1  -8 -19  200.44   14.34
   1  -8  19  211.64   16.84
   1   8  19  201.22   16.61
  -1   8  20    1.55    3.29
  -1  -8  20    0.17    4.12
   1   8  20    4.20    3.72
   1  -8  20    1.97    4.32
   1  -8 -20   11.40    5.89
  -1  -8 -20    3.94    3.96
   1   8  21   70.25   10.38
   1  -8  21   70.38   10.36
   1  -8 -21   59.51    9.44
  -1  -8 -21   65.01    8.83
  -1   8  21   52.63    9.00
  -1  -8  21   59.32    9.41
   1   8  22    4.68    4.03
  -1  -8  22    3.65    3.61
   1  -8 -22    9.81    5.41
  -1   8  22   11.77    5.25
  -1  -8 -22    8.00    4.04
   1  -8  22    8.49    5.03
  -1   8  23   96.83   12.36
  -1  -8 -23   80.98   10.22
  -1  -8  23   69.87   10.83
   1  -8  23   81.20   11.59
   1  -8 -23   82.83   11.12
  -1  -8  24    8.63    5.59
   1  -8 -24    6.88    4.94
   1  -8 -25   21.93    6.68
   1  -8 -26   14.52    5.98
   1  -9   0   -1.38    2.42
  -1   9   0   -1.18    3.49
   1   9   0   -2.25    3.14
  -1   9   0   -1.74    1.26
  -1  -9   0    1.79    2.92
  -1   9  -1   31.05    6.50
  -1   9   1   28.83    2.53
  -1   9  -1   31.75    3.01
  -1   9  -1   30.22    2.40
  -1  -9  -1   30.92    5.37
   1  -9   1   33.10    5.20
   1  -9  -1   32.33    4.59
  -1   9   1   36.80    6.38
   1   9   1   24.19    4.96
   1   9  -1   29.45    6.02
  -1  -9   1   31.50    5.43
   1   9  -2  128.34   10.52
  -1   9  -2  111.33    4.76
  -1  -9  -2  112.15    9.08
   1   9   2  122.42   10.34
  -1   9   2  111.89   10.19
  -1   9   2  102.85    4.44
   1  -9   2  112.51    8.85
   1  -9  -2  119.55    8.35
  -1   9  -2  114.35    6.02
  -1  -9   2  115.59    9.61
  -1   9  -2  123.75   11.14
   1  -9   3  147.55   10.27
  -1   9  -3  134.36   11.20
  -1   9  -3  144.56    5.73
   1  -9  -3  142.73    8.99
   1   9  -3  137.27    4.72
  -1  -9   3  137.62   10.80
   1   9  -3  149.33   11.62
   1   9   3  160.10   11.96
  -1   9   3  155.00   11.90
  -1  -9  -3  137.09    9.77
   1  -9   4   58.19    6.90
  -1  -9  -4   46.55    5.88
  -1   9  -4   52.73    3.93
  -1   9  -4   45.57    6.99
   1  -9  -4   50.45    5.40
   1   9  -4   40.91    6.25
  -1   9   4   41.10    6.11
  -1  -9   4   46.50    6.57
   1   9   4   47.98    6.32
   1  -9  -5   15.03    3.41
  -1  -9   5   10.64    3.85
  -1   9  -5   20.80    6.14
   1  -9   5    6.56    3.24
   1   9  -5    4.62    3.49
  -1  -9  -5   13.98    3.57
  -1   9   5    7.76    3.46
   1   9   5    4.14    3.31
  -1  -9  -6   87.37    7.92
  -1   9  -6   98.89   10.51
   1  -9   6   78.38    8.24
   1  -9  -6   81.00    6.49
  -1   9   6   77.79    8.52
  -1  -9   6   89.22    9.03
   1   9   6   83.69    8.83
   1   9  -6   76.62    8.97
   1  -9   7   -1.66    3.59
  -1   9  -7    5.89    5.52
   1   9  -7   11.93    5.85
   1  -9  -7    1.01    1.93
  -1   9   7   -6.77    4.90
  -1  -9  -7   -0.18    2.65
  -1  -9   7   -0.38    2.95
   1   9   7   -2.80    3.37
  -1   9  -8   26.22    7.28
   1  -9   8   18.14    5.61
  -1  -9   8   16.26    5.77
  -1   9   8   20.66    6.00
   1   9  -8   30.65    7.23
  -1  -9  -8   19.50    5.06
   1  -9  -8   15.16    3.50
   1   9   8   12.76    4.78
  -1  -9  -9 1145.07   27.93
  -1  -9   9 1225.70   33.70
   1  -9  -9 1198.46   23.26
  -1   9   9 1239.41   34.74
   1   9  -9 1248.02   34.34
   1  -9   9 1198.81   32.97
   1   9   9 1167.01   34.04
  -1   9  10   57.02    8.38
   1   9 -10   72.68    9.39
   1   9  10   64.61   10.06
  -1  -9 -10   53.67    6.44
  -1  -9  10   57.04    8.86
   1  -9 -10   57.11    5.05
   1  -9  10   52.20    8.25
   1  -9 -10   63.29    5.70
  -1  -9  11   38.59    7.05
  -1  -9 -11   36.37    5.39
   1  -9  11   43.43    7.17
   1  -9 -11   40.02    4.35
  -1   9  11   27.81    5.75
   1   9  11   30.30    6.24
   1   9  12    6.12    3.36
  -1   9  12    1.68    3.49
  -1  -9  12    8.80    3.92
   1  -9  12    7.76    3.78
  -1  -9  12   10.07    3.22
  -1  -9 -12    8.09    3.14
  -1   9  13    0.61    3.38
  -1  -9  13    5.71    3.96
  -1  -9 -13    1.16    2.42
  -1  -9  13    1.84    2.02
   1  -9  13   -0.97    3.94
   1   9  13    3.24    2.91
  -1  -9  14    5.10    3.39
  -1  -9 -14   10.12    3.45
  -1   9  14   10.21    3.96
   1   9  14   14.84    5.31
   1  -9  14   11.28    4.20
   1  -9  15   39.41    7.22
   1   9  15   44.20    7.94
  -1   9  15   42.18    7.35
  -1  -9  15   32.68    6.86
  -1  -9 -15   37.01    6.00
  -1  -9 -16   83.15    9.02
  -1  -9  16   65.94    9.38
   1   9  16   91.15   11.01
  -1   9  16   87.59   10.64
   1  -9  16   71.49    9.68
  -1  -9  17    2.03    3.43
   1   9  17    7.68    4.61
   1  -9  17    6.96    4.48
  -1  -9 -17    9.38    3.92
  -1   9  17    5.25    3.67
  -1   9  18   30.74    6.76
  -1  -9  18   25.62    6.31
   1   9  18   37.92    7.42
   1  -9  18   44.01    8.53
  -1  -9 -18   33.54    6.25
  -1   9  19   38.63    7.94
  -1  -9  19   33.58    7.73
   1   9  19   28.97    7.18
  -1  -9 -19   31.63    6.17
   1  -9  19   29.03    7.39
   1   9  20   40.21    8.16
  -1   9  20   29.89    7.14
  -1  -9 -20   32.35    6.29
   1  -9  20   35.49    8.39
  -1  -9  20   43.90    8.70
   1   9  21   44.05    8.45
  -1  -9  21   33.32    7.84
  -1   9  21   37.50    8.48
   1  -9  21   37.68    8.22
   1  -9  22    9.72    5.48
   1   9  22    7.35    4.33
  -1  -9  22   16.93    6.75
  -1   9  22   13.35    5.69
   1 -10   0   -3.00    2.87
  -1 -10   0   -2.59    3.37
   1  10   0   -9.96    4.99
  -1  10   0    0.70    2.83
   1 -10  -1   86.87    7.78
   1  10  -1   86.23    9.49
  -1  10   1   74.21    8.94
   1  10   1   84.20    9.30
  -1  10  -1   97.15   10.27
  -1 -10  -1   89.05    8.77
  -1 -10   1   90.86    9.02
   1 -10   1   82.81    8.10
   1 -10  -2   69.09    6.85
  -1  10   2   61.57    8.26
  -1 -10  -2   78.11    8.28
   1 -10   2   65.03    7.44
  -1  10  -2   77.44    9.37
  -1 -10   2   70.75    8.11
   1  10  -2   62.52    8.30
   1  10   2   71.92    8.51
   1  10  -3  205.66   14.42
   1  10   3  204.09   14.24
  -1 -10  -3  194.82   12.31
  -1  10   3  205.20   14.48
  -1 -10   3  204.97   13.73
   1 -10  -3  208.33   11.53
   1 -10   3  216.37   13.10
  -1  10  -3  238.81   15.94
   1 -10   4    4.15    3.27
  -1 -10  -4   10.52    3.04
   1 -10  -4   12.71    3.22
  -1  10   4    4.37    3.71
  -1  10  -4    6.16    4.29
   1  10  -4   18.76    5.77
   1  10   4    7.60    3.23
  -1 -10   4   13.22    4.26
   1 -10  -5  182.42   10.43
   1  10   5  171.86   13.24
  -1 -10  -5  182.51   11.93
   1  10  -5  176.79   13.59
  -1  10   5  177.48   13.56
  -1 -10   5  191.17   13.63
   1 -10   5  177.85   12.40
  -1  10  -5  178.75   13.72
  -1  10   6  174.84   13.83
  -1  10  -6  188.14   14.51
   1 -10   6  169.13   12.39
   1  10   6  172.32   13.35
   1 -10  -6  174.14   10.04
  -1 -10  -6  169.77   11.32
   1  10  -6  175.83   13.53
  -1 -10   6  175.72   13.41
   1 -10  -7  114.86    8.07
   1  10  -7  100.18   10.64
  -1 -10  -7  105.71    9.08
  -1 -10   7  114.34   11.18
   1  10   7  104.10   10.73
   1 -10   7  107.01   10.35
  -1  10   7  112.48   11.19
  -1  10  -7  116.10   11.90
   1 -10   8   95.18    9.95
   1  10   8   97.86   10.75
   1  10  -8   89.93   10.43
  -1 -10  -8   90.08    8.32
   1 -10  -8   95.02    7.29
  -1  10   8  101.74   10.98
  -1  10  -8  101.56   11.26
  -1 -10   8  104.04   10.87
  -1 -10   9   56.24    8.56
   1  10  -9   57.48    8.67
  -1 -10  -9   49.30    6.48
   1  10   9   45.01    8.04
  -1  10  -9   55.73    9.07
  -1  10   9   49.75    7.92
   1 -10   9   52.83    8.13
   1 -10  -9   50.73    5.34
  -1  10 -10  350.55   20.26
  -1 -10  10  359.37   19.96
   1 -10  10  374.56   19.66
  -1  10  10  364.50   20.70
  -1 -10 -10  383.30   16.84
   1  10  10  365.55   20.39
   1  10 -10  408.20   21.19
  -1  10 -11   34.63    7.63
   1  10  11   23.38    6.23
  -1 -10  11   24.03    6.49
  -1 -10 -11   22.97    4.57
  -1  10  11   18.83    5.56
   1  10 -11   24.86    6.35
   1 -10  11   21.60    5.78
  -1 -10 -12   71.67    7.75
   1  10  12   79.08    9.73
  -1 -10  12   76.37    7.84
  -1 -10  12   72.54    9.47
   1 -10  12   70.82    8.97
   1  10 -12   79.20    9.89
  -1  10  12   73.97    9.44
  -1 -10  13   49.92    8.47
   1  10  13   48.15    8.11
   1 -10  13   50.37    8.13
  -1  10  13   50.77    8.45
  -1 -10 -13   54.81    6.49
  -1  10  14   -1.59    4.06
   1  10  14    4.96    3.36
  -1 -10 -14    6.70    2.92
  -1 -10  14    7.78    4.07
   1 -10  14    2.08    3.61
  -1 -10  15    4.33    3.64
   1  10  15   -4.10    4.01
  -1 -10 -15   -3.14    3.20
   1 -10  15    0.22    3.14
  -1  10  15   -3.44    3.92
   1  10  16   92.04   11.42
  -1  10  16   98.50   11.81
  -1 -10 -16   87.50    9.21
  -1 -10  16  100.26   11.82
   1 -10  16  116.58   12.65
  -1  10  17   10.16    4.45
   1 -10  17   17.45    6.14
  -1 -10  17   20.07    5.95
   1  10  17    9.82    5.05
  -1 -10 -17    9.42    4.00
   1  10  18   12.49    4.96
   1 -10  18   12.52    5.12
  -1 -10  18    5.02    5.01
  -1  10  18   16.39    5.46
   1  10  19    3.69    3.91
  -1  10  19    4.76    4.03
   1 -10  19    2.93    4.11
  -1 -10  19    6.78    4.72
  -1  10  20  133.21   14.57
   1 -10  20  116.40   13.67
   1  10  20  118.01   14.02
  -1 -10  20  115.34   13.50
  -1  10  21    2.98    3.88
  -1 -11   0    3.60    3.25
   1 -11   0   -1.25    2.43
  -1  11   0   -2.86    3.63
   1  11   0    1.79    3.19
   1 -11   1    0.30    2.53
  -1  11   1   -1.09    3.43
   1  11  -1    1.02    3.58
  -1 -11  -1    3.70    3.04
  -1  11  -1    8.45    4.63
  -1 -11   1    0.81    3.13
   1 -11  -1   -1.79    2.61
   1  11   1    0.03    3.57
  -1 -11  -2   10.71    3.79
  -1  11  -2    6.74    4.24
  -1  11   2    0.97    4.23
   1  11  -2   14.16    4.85
  -1 -11   2    6.38    3.22
   1 -11   2   -1.01    3.15
   1  11   2    2.92    3.39
   1 -11  -2    8.11    3.17
  -1  11   3   42.23    7.15
  -1 -11  -3   46.84    6.82
   1  11   3   36.52    7.01
   1 -11  -3   51.88    6.30
  -1  11  -3   49.03    8.11
   1 -11   3   37.81    5.91
  -1 -11   3   47.02    7.78
   1  11  -3   47.03    7.75
  -1 -11   4   32.94    6.25
  -1  11   4   41.40    7.34
  -1 -11  -4   39.89    6.25
   1 -11  -4   34.22    5.06
   1  11  -4   44.17    7.88
  -1  11  -4   44.99    7.94
   1  11   4   32.14    6.37
   1 -11   4   38.82    6.25
  -1 -11   5    1.29    2.63
  -1 -11  -5   -1.40    3.03
   1  11  -5    2.11    4.07
  -1  11  -5   -5.41    5.09
  -1  11   5   -1.58    3.81
   1 -11   5   -4.67    4.02
   1 -11  -5    2.61    1.92
   1  11   5  -12.71    4.82
   1 -11   6    2.12    2.75
  -1  11  -6    1.93    4.01
  -1  11   6    4.08    3.17
   1  11  -6   -1.76    4.38
   1 -11  -6    1.44    2.20
   1  11   6   -1.96    3.90
  -1 -11   6   -1.34    3.79
  -1 -11  -6    4.46    2.67
   1  11  -7   24.44    6.12
  -1 -11  -7   27.69    5.27
  -1  11   7   24.57    5.58
   1 -11  -7   26.50    4.23
   1 -11   7   28.97    6.08
  -1  11  -7   35.01    7.43
  -1 -11   7   21.23    5.48
   1  11   7   28.44    6.71
  -1 -11   8  136.11   12.36
  -1 -11  -8  151.38   11.28
   1 -11   8  139.65   12.35
  -1  11   8  140.75   13.26
   1  11   8  123.05   12.60
   1  11  -8  139.22   13.18
  -1  11  -8  149.93   13.92
  -1  11  -9   18.85    6.60
  -1 -11  -9   11.49    3.62
  -1  11   9   12.53    4.92
  -1 -11   9   15.44    5.36
   1  11  -9   11.68    5.44
   1 -11   9    2.70    3.74
   1  11   9    6.65    3.82
   1  11 -10  169.20   14.74
   1 -11  10  150.96   13.47
  -1  11  10  167.99   14.73
   1  11  10  150.57   13.88
  -1  11 -10  157.94   14.72
  -1 -11 -10  158.13   11.50
  -1 -11  10  165.63   14.36
   1  11  11   24.27    6.15
  -1  11  11   17.11    5.57
  -1  11 -11   22.70    6.54
   1  11 -11   24.25    6.78
  -1 -11  11   20.08    6.36
   1 -11  11   19.95    5.85
  -1 -11 -11   21.12    4.68
   1  11 -12   46.62    8.62
   1  11  12   45.63    8.18
  -1 -11  12   41.94    7.99
  -1  11 -12   48.00    8.78
  -1 -11 -12   40.95    6.30
  -1  11  12   37.55    7.65
   1 -11  12   47.54    7.78
  -1 -11  13    2.80    3.60
   1  11 -13   10.27    5.42
  -1  11 -13    8.46    5.48
   1 -11  13    4.94    3.91
   1  11  13    1.80    3.37
  -1  11  13   10.96    4.70
   1  11  14    2.97    3.40
  -1  11  14   -2.55    4.33
   1 -11  14    1.10    3.41
   1  11 -14    8.45    4.98
  -1 -11  14   -1.05    3.93
   1 -11  15   -3.40    4.43
  -1  11  15   -2.75    4.42
   1  11 -15    0.69    3.63
  -1 -11  15   -1.39    4.17
   1  11  15   -1.10    3.34
  -1  11  16    0.89    2.87
  -1 -11  16    3.84    4.07
   1 -11  16    2.59    3.43
   1  11  16    7.37    4.35
   1 -11  17   15.08    5.51
   1  11  17   12.46    5.09
  -1 -11  17   13.70    5.56
  -1  11  17    1.55    3.59
   1 -11  18    2.44    3.93
  -1  11  18   -0.02    3.02
  -1 -11  18   -3.59    4.70
   1  11  18    1.18    2.94
  -1 -12   0   -1.77    3.68
  -1  12   0   -1.86    3.40
   1  12   0   -3.61    4.18
   1 -12   0   -0.33    2.57
  -1  12   1   -2.62    4.21
   1 -12  -1   -2.29    2.55
   1  12  -1   -5.33    4.22
  -1 -12  -1   -3.68    3.66
   1  12   1   -1.94    3.93
  -1 -12   1    2.45    2.69
  -1  12  -1    3.38    3.89
   1 -12   1   -3.54    3.60
  -1 -12   2   45.35    7.31
  -1 -12  -2   48.43    7.35
   1  12   2   51.09    8.27
   1 -12   2   51.30    7.26
   1 -12  -2   51.21    6.67
  -1  12   2   57.79    8.62
  -1  12  -2   60.87    9.40
   1  12  -2   48.43    8.31
  -1 -12  -3   11.90    4.29
   1  12  -3   14.70    5.14
  -1  12  -3    9.85    4.24
  -1  12   3    5.53    3.94
   1 -12   3    4.89    2.81
   1  12   3    2.60    4.06
  -1 -12   3    4.33    3.12
   1 -12  -3   11.31    3.69
  -1  12   4   -2.97    4.45
   1 -12   4   -4.64    3.68
  -1 -12   4   -2.78    3.51
  -1 -12  -4    3.40    3.07
   1  12  -4   -0.49    3.40
  -1  12  -4    5.41    4.36
   1  12   4    1.53    3.23
   1 -12  -4   -0.83    1.98
  -1 -12   5    1.64    3.27
   1  12  -5    0.61    3.85
   1 -12   5    2.70    2.82
  -1  12   5   -1.99    3.22
  -1 -12  -5    0.94    2.23
   1  12   5    2.26    2.92
   1  12  -6   21.63    6.68
  -1 -12   6    7.61    4.25
   1  12   6    9.76    4.34
   1 -12   6    4.24    3.15
  -1  12  -6   15.45    5.15
  -1  12   6    7.42    4.00
  -1 -12  -6   10.26    4.15
  -1 -12   7   11.78    4.73
   1  12  -7   23.89    6.86
  -1  12   7   17.34    5.41
  -1 -12  -7    8.58    3.00
   1  12   7   15.83    5.04
   1 -12   7   13.06    4.50
  -1  12  -7    7.94    4.62
  -1 -12  -8   31.66    5.68
   1 -12   8   31.18    6.36
  -1  12  -8   24.17    6.77
   1  12  -8   29.19    6.91
  -1  12   8   28.75    6.64
   1  12   8   28.52    6.99
  -1 -12   8   31.15    6.73
   1  12   9   65.83    9.85
  -1  12  -9   88.18   11.30
   1  12  -9   82.43   11.03
   1 -12   9   71.73    9.79
  -1 -12  -9   71.39    8.27
  -1 -12   9   74.11   10.08
  -1  12   9   74.80   10.64
   1  12  10    1.66    3.48
  -1  12  10   11.72    4.96
  -1 -12  10   12.70    5.26
  -1  12 -10   20.50    6.90
   1  12 -10    5.73    3.98
   1 -12  10   19.44    6.16
   1  12 -11    3.40    3.86
  -1 -12  11    2.79    4.03
   1  12  11    6.56    4.64
  -1  12  11    0.70    2.57
  -1  12 -11    0.33    3.81
   1 -12  11    2.40    3.10
   1 -12  12    7.57    4.56
   1  12 -12   10.30    5.58
  -1  12 -12   18.46    6.83
   1  12  12    9.08    4.52
  -1 -12  12   11.40    5.56
  -1  12  12    9.64    4.68
   1  12 -13  106.54   12.68
  -1 -12  13  110.35   12.73
   1 -12  13  113.31   12.67
  -1  12  13  105.91   12.79
  -1  12 -13  116.28   13.43
   1  12  13  110.75   12.97
  -1  12 -14    1.67    4.61
   1  12 -14    0.60    3.02
  -1 -12  14    2.13    4.16
   1  12  14   -6.25    4.33
   1 -12  14    2.01    4.03
  -1  12  14   -1.86    3.05
   1  12  15   -0.42    3.19
  -1  12 -15    6.29    4.90
  -1  12  15   -3.54    4.25
   1  12 -15    3.03    4.38
   1 -12  15   -1.90    4.17
  -1 -12  15    0.28    3.88
   1  12 -16   48.49    9.15
  -1 -12  16   43.83    9.04
   1  12  16   52.21    9.35
  -1  12  16   44.03    8.63
  -1  12 -16   52.65    9.94
   1 -12  16   41.95    8.37
   1  12 -17   16.61    6.27
  -1  13   0   -9.68    4.85
  -1 -13   0    2.44    3.52
   1  13   0   -1.71    4.71
   1 -13   0    0.63    2.72
  -1 -13  -1   20.33    5.36
   1  13   1   19.97    5.76
   1 -13   1   24.10    5.49
  -1  13  -1   21.45    6.53
   1  13  -1   16.78    5.89
  -1  13   1   12.43    5.15
  -1 -13   1   26.59    5.94
   1 -13  -1   14.64    4.14
   1 -13   2   11.03    3.78
  -1  13  -2   10.93    5.04
   1  13  -2    9.65    4.93
   1  13   2   16.39    5.37
  -1  13   2    9.42    4.15
  -1 -13  -2   11.31    4.00
  -1 -13   2   10.20    4.31
   1 -13  -2   15.51    4.05
  -1  13  -3   27.90    7.09
   1  13  -3   12.49    4.98
  -1 -13  -3   18.57    5.22
   1 -13   3   23.77    5.54
   1  13   3   23.36    6.32
  -1 -13   3   13.60    4.57
  -1  13   3   18.32    5.49
   1 -13   4   33.21    6.31
  -1 -13  -4   24.55    5.39
   1  13   4   37.74    7.95
  -1  13  -4   22.39    6.38
  -1  13   4   21.16    5.65
   1  13  -4   24.96    6.74
  -1 -13   4   20.19    5.32
  -1 -13   5   -4.52    4.14
  -1  13   5    0.58    3.18
  -1  13  -5   -1.51    3.59
   1 -13   5    0.19    2.54
  -1 -13  -5   -0.02    2.32
   1  13  -5    7.06    4.42
   1  13   5   -1.28    2.57
   1  13  -6    4.61    4.27
   1 -13   6    0.29    2.95
  -1  13  -6    3.63    4.50
  -1 -13  -6    2.41    3.34
   1  13   6   -4.41    4.56
  -1  13   6   -1.17    3.77
  -1 -13   6   -0.36    3.28
  -1 -13   7   -0.71    3.99
  -1  13  -7   15.17    6.29
   1  13  -7   12.73    5.62
   1  13   7    3.27    3.79
  -1 -13  -7    5.67    3.24
   1 -13   7    8.24    4.31
  -1  13   7    1.73    2.98
   1 -13   8    3.05    2.79
   1  13  -8   10.78    5.77
  -1  13  -8   -0.50    3.48
  -1 -13   8    5.71    4.25
   1  13   8    3.73    3.12
  -1  13   8    4.26    3.99
   1  13   9   45.36    8.50
  -1  13   9   42.71    8.47
  -1  13  -9   54.85    9.74
   1  13  -9   42.30    8.43
   1 -13   9   47.49    8.20
  -1 -13   9   44.15    8.28
   1  13  10    4.95    4.20
  -1  13  10    7.20    4.84
  -1 -13  10    5.37    4.69
   1  13 -10    5.70    4.98
   1 -13  10    5.14    3.28
  -1  13 -10   11.81    5.50
   1  13 -11    1.28    3.75
  -1  13 -11    6.15    5.51
   1 -13  11    2.89    3.81
  -1  13  11    1.47    3.05
  -1 -13  11    4.65    4.05
   1  13  11   -4.03    4.14
  -1  13  12   17.33    5.86
   1  13  12   21.37    6.52
   1  13 -12   18.47    6.12
  -1  13 -12   24.74    7.15
  -1 -13  12   32.81    7.87
   1 -13  12   13.18    4.82
  -1 -13  13   -0.04    3.10
  -1  13  13   -4.58    4.17
   1  13  13    2.45    3.07
  -1  13 -13    0.68    4.33
   1  13 -13   -0.22    2.94
   1 -13  13    0.94    3.69
   1  13 -14   10.26    5.24
   1 -13  14   11.56    5.08
  -1 -14   0   -1.72    3.33
  -1  14   0   -2.37    4.07
   1  14   0   -3.45    4.31
  -1 -14  -1    7.68    3.70
  -1  14  -1    1.60    3.30
   1 -14   1    7.37    3.72
   1  14   1    7.32    4.29
   1  14  -1   -3.92    4.18
  -1 -14   1    8.23    4.48
  -1  14   1   11.80    4.96
  -1  14  -2   11.10    4.72
  -1 -14   2   14.54    5.20
   1 -14   2   14.72    4.67
  -1 -14  -2   16.77    5.08
   1  14   2    5.46    3.27
  -1  14   2   11.78    4.68
   1  14  -2   14.37    5.58
  -1 -14   3    7.32    3.63
   1  14   3    2.44    3.91
  -1  14  -3    6.52    4.01
   1 -14   3    8.71    3.84
  -1 -14  -3    6.26    3.22
   1  14  -3    7.86    4.51
  -1  14   3    8.07    3.85
  -1 -14  -4   -5.09    3.42
   1  14   4   -0.43    2.95
  -1  14  -4   -2.83    3.81
   1 -14   4    0.81    3.03
  -1  14   4    0.37    3.64
  -1 -14   4   -3.12    4.40
   1  14  -4   -0.87    3.58
   1  14   5   28.30    6.85
  -1 -14   5   32.71    7.27
   1 -14   5   36.17    7.12
  -1  14   5   34.30    7.90
  -1  14  -5   36.13    8.15
   1  14  -5   31.46    7.76
  -1  14   6   57.17    9.91
   1 -14   6   64.64    9.59
  -1  14  -6   72.44   11.22
   1  14  -6   53.45    9.62
   1  14   6   63.55   10.17
  -1 -14   6   63.30    9.68
  -1  14  -7   11.21    5.44
  -1 -14   7   12.79    5.74
   1  14   7   -4.23    4.19
   1 -14   7   -1.05    2.70
  -1  14   7    1.13    3.55
   1  14  -7   -0.22    3.43
  -1 -14   8    1.63    3.24
  -1  14  -8    8.29    5.86
   1 -14   8    0.73    2.99
   1  14   8    1.90    3.48
  -1  14   8    4.11    3.62
   1  14  -8   14.68    6.06
   1 -14   9    4.79    3.31
   1  14  -9   13.86    5.81
  -1 -14   9    9.74    5.40
  -1 -14  10   45.80    9.17
   1  14 -10   36.88    8.56
   1 -14  10   25.69    6.79
   1 -14  11    5.53    3.92
  -1 -15   0    3.10    3.43
  -1 -15  -1   -2.29    3.32
  -1 -15   1    4.82    3.73
  -1 -15   2   31.91    7.25
  -1 -15   3   10.04    4.14
  -1 -15   4    3.40    3.52
   1 -15   4    4.58    3.88
  -1 -15   5    6.03    3.88
   1 -15   5    0.71    2.98
  -1 -15   6   20.44    6.56
   1 -15   6   12.60    4.95
   1 -15   7    8.65    4.69
   1 -15   8   24.58    6.85
   2   0   0  652.70   12.08
  -2   0   0  663.27   12.16
   2   0   0  632.76   10.61
   2   0   0  658.93   11.81
  -2   0   0  669.70   10.66
   2   0   1    5.31    1.56
   2   0   1    1.11    1.13
  -2   0  -1    2.05    1.60
   2   0  -1   -0.84    1.56
   2   0   1    0.37    1.20
  -2   0  -1   -2.41    1.90
  -2   0   1    0.33    1.93
   2   0  -1    0.11    2.06
   2   0  -1    2.07    1.22
   2   0  -1    4.87    1.83
  -2   0   1   -1.50    1.88
  -2   0  -1   -0.51    1.44
   2   0  -2 6339.74   38.41
  -2   0   2 6379.69   38.55
   2   0   2 6418.39   39.05
   2   0   2 6153.48   36.09
   2   0  -2 6402.84   38.96
  -2   0  -2 6196.88   38.35
   2   0   2 6233.86   35.84
  -2   0   2 6421.48   38.58
  -2   0  -2 6432.63   35.19
  -2   0  -2 6193.48   35.83
   2   0  -3    3.23    0.72
   2   0   3   -1.32    1.45
  -2   0  -3    2.70    1.38
  -2   0   3   -0.25    0.98
  -2   0  -3    2.84    1.94
   2   0  -3    7.25    2.81
  -2   0   3    1.19    2.00
   2   0   3   -1.74    1.64
  -2   0   3   -1.04    1.60
   2   0  -3   -5.12    2.71
  -2   0  -3    4.50    2.33
   2   0   3    2.35    1.47
   2   0  -4 3242.17   20.42
   2   0   4 3366.11   29.97
  -2   0  -4 3308.84   30.71
  -2   0   4 3333.58   23.03
  -2   0   4 3295.21   30.53
  -2   0  -4 3215.83   29.44
  -2   0  -4 3365.69   24.79
   2   0  -4 3280.76   30.54
  -2   0   4 3288.34   30.17
   2   0  -4 3308.67   30.39
  -2   0  -5    3.16    1.36
  -2   0   5   -2.39    2.45
   2   0  -5    1.13    0.95
   2   0  -5    0.30    0.86
   2   0   5    1.18    1.04
   2   0  -5    0.02    2.19
  -2   0   5    0.94    1.31
   2   0  -5    0.59    1.60
  -2   0  -5   -0.83    2.03
  -2   0  -6  525.65    9.76
  -2   0   6  499.60    9.96
   2   0  -6  501.06    9.96
   2   0  -6  513.09   13.34
   2   0  -6  513.64   13.47
   2   0   6  502.80   13.02
  -2   0  -6  492.46   12.99
   2   0  -6  506.96   10.42
   2   0  -7    4.84    2.15
   2   0   7    2.77    1.69
  -2   0   7    7.89    1.70
   2   0  -7    4.18    1.76
  -2   0  -7    3.54    2.26
   2   0  -7    3.18    1.33
   2   0  -7    3.32    2.40
  -2   0  -8 2060.29   29.41
  -2   0   8 2086.83   23.18
  -2   0  -8 2045.06   13.40
   2   0  -8 2124.99   22.93
   2   0  -8 2151.25   25.39
  -2   0   9    0.64    1.41
  -2   0  -9    7.37    4.11
   2   0  -9    1.35    1.38
   2   0  -9    6.63    2.38
  -2   0  -9    0.91    0.80
   2   0 -10 4939.09   43.91
   2   0 -10 4989.77   39.23
  -2   0 -10 4997.17   49.59
  -2   0  10 4918.90   39.62
  -2   0 -10 4942.01   26.42
  -2   0  11    1.93    1.71
   2   0 -11    2.24    1.67
  -2   0  12  981.68   19.75
  -2   0 -12 1010.32   14.14
  -2   0 -12 1002.35   24.27
   2   0 -12  992.69   19.64
  -2   0  13    2.16    2.91
  -2   0 -13    1.48    1.78
  -2   0 -14 1311.71   29.99
  -2   0  14 1296.98   24.64
  -2   0  15    5.05    2.70
  -2   0 -15   26.64    7.03
  -2   0 -16   65.39    7.65
  -2   0  16   61.48    5.87
  -2   0 -17    1.92    3.85
  -2   0  17    0.48    2.56
  -2   0 -17   -0.47    1.53
  -2   0 -18  134.39    7.05
  -2   0 -18  162.41   11.94
  -2   0  18  146.33    9.96
  -2   0 -19   -3.28    2.35
  -2   0 -19   -0.26    3.55
  -2   0  19    0.55    2.53
  -2   0  20   48.69    6.17
  -2   0 -20   49.91    4.70
  -2   0 -20   50.90    7.67
   2   0 -20   47.35    6.38
   2   0 -21    1.75    2.77
  -2   0 -21    5.75    3.66
  -2   0  21    1.53    2.43
  -2   0 -22   -1.67    3.71
   2   0 -22   -0.40    3.25
  -2   0 -23    0.75    3.00
   2   0 -23   -2.52    3.03
  -2   0 -24   11.53    5.50
   2   0 -24    8.88    3.97
   2   0 -25    2.30    3.10
  -2   0 -25   10.04    5.55
   2   0 -26   43.34    7.94
  -2   0 -26   48.50    8.86
   2   0 -27    4.35    4.31
  -2   0 -27    0.77    3.77
  -2   0 -28   17.87    6.81
   2   0 -28    1.67    3.55
   2   0 -29    1.81    4.34
   2   0 -30   13.69    5.23
   2  -1   0 8241.58   39.57
  -2  -1   0 8319.52   45.03
   2   1   0 8385.32   24.92
  -2  -1   0 8192.08   24.96
   2   1   0 8437.46   43.33
  -2   1   0 8344.06   32.26
  -2  -1   0 8524.54   41.24
  -2  -1   0 8467.76   42.93
  -2   1   0 8338.93   39.33
   2   1   0 8334.37   45.35
  -2   1   0 8293.78   44.70
   2  -1   0 8290.66   32.29
  -2   1  -1 7072.30   32.46
   2  -1  -1 6982.78   40.70
   2   1  -1 7266.89   38.36
  -2  -1   1 7123.48   38.55
   2   1  -1 7369.16   43.04
  -2   1   1 7080.93   27.48
  -2  -1  -1 7140.79   40.49
   2   1   1 7010.67   40.77
  -2  -1   1 7138.72   38.19
   2  -1  -1 7049.23   27.59
  -2  -1   1 7098.16   42.44
  -2   1  -1 7029.27   38.15
  -2   1   1 7197.96   41.43
  -2   1   1 7230.28   27.34
  -2  -1  -1 7089.88   27.94
  -2   1   1 7241.84   41.89
   2  -1   1 6951.11   38.21
   2   1  -1 7158.92   39.52
  -2  -1  -1 7041.87   41.19
   2  -1  -1 7096.97   35.37
   2   1   1 7152.73   41.40
   2   1   1 7243.33   27.61
   2  -1   1 6945.27   32.76
  -2  -1  -2   59.46    4.17
  -2  -1  -2   61.41    4.27
  -2   1   2   62.71    2.73
   2  -1  -2   63.87    2.91
  -2   1   2   50.72    3.72
   2  -1  -2   64.14    2.66
   2   1   2   62.50    4.09
  -2   1   2   60.62    4.08
   2  -1  -2   66.30    4.49
  -2   1  -2   60.91    3.90
  -2  -1   2   60.27    3.88
   2  -1  -2   69.78    4.55
  -2  -1  -2   59.98    3.06
  -2  -1  -2   75.00    4.56
  -2  -1   2   47.34    2.61
  -2  -1   2   61.65    4.25
   2   1  -2   44.19    2.71
   2   1   2   64.71    3.13
   2  -1   2   68.90    3.63
   2   1  -2   62.07    4.01
   2   1  -2   65.72    4.34
  -2   1  -2   63.10    3.39
   2   1   2   70.30    4.34
  -2   1  -3 2634.72   23.93
   2   1   3 2696.13   22.33
   2   1   3 2674.55   26.85
  -2  -1   3 2635.64   23.92
   2   1  -3 2693.07   25.48
   2  -1  -3 2644.36   26.51
   2  -1  -3 2688.38   19.38
   2   1   3 2700.09   26.97
  -2   1   3 2629.25   19.09
   2   1  -3 2628.97   26.70
  -2  -1   3 2670.64   25.26
  -2   1   3 2663.77   26.41
  -2   1  -3 2674.74   26.23
   2  -1   3 2627.64   24.07
  -2  -1  -3 2627.02   26.85
  -2  -1  -3 2688.70   22.53
   2   1  -3 2704.78   25.49
  -2   1   3 2666.58   26.76
   2  -1  -3 2680.25   27.00
   2  -1   3 2678.57   21.64
  -2  -1   3 2664.50   25.61
  -2  -1  -3 2652.65   26.85
  -2  -1   4 2923.75   27.82
  -2   1  -4 2856.78   26.70
  -2   1   4 2943.46   16.32
  -2  -1   4 2921.82   25.73
   2   1   4 2838.33   25.47
   2   1  -4 2904.58   28.38
   2  -1   4 2867.05   21.62
  -2   1   4 2914.20   28.73
   2  -1   4 2912.62   27.24
   2   1  -4 2872.54   28.16
  -2  -1  -4 2849.33   25.73
  -2   1  -4 2897.38   28.56
   2   1  -4 2862.92   25.81
   2   1   4 2949.82   29.45
  -2   1   4 2856.74   22.08
   2  -1  -4 2991.54   29.73
  -2   1   4 2946.30   29.30
   2   1  -4 2889.80   27.94
  -2  -1  -4 2848.10   28.89
   2  -1  -4 2936.73   28.83
  -2  -1  -4 2918.76   29.17
   2  -1  -4 2870.81   22.07
   2   1   4 2941.50   29.34
   2  -1   5   23.79    2.06
   2  -1  -5   14.25    1.86
   2   1  -5   13.32    2.24
  -2  -1   5   12.98    2.24
   2   1  -5   13.66    2.39
  -2   1   5   14.62    1.96
   2   1   5   15.92    2.45
  -2  -1   5   11.49    1.90
   2   1  -5   12.67    2.00
  -2  -1  -5   16.73    2.87
   2  -1  -5   15.73    2.52
   2  -1   5   16.39    2.45
  -2  -1  -5   15.26    2.19
  -2   1   5   12.82    2.51
  -2  -1  -5   17.33    2.99
  -2   1   5   10.98    1.95
  -2   1  -5   13.30    2.57
  -2   1  -5   19.40    3.47
  -2   1   5   14.53    1.39
   2  -1  -5   13.86    2.64
   2   1  -5   10.87    2.31
  -2   1  -6   13.83    2.43
   2   1   6   15.51    2.60
   2  -1  -6   12.89    1.40
  -2   1  -6   13.95    3.62
   2  -1  -6   21.46    2.37
   2   1   6   12.01    1.48
  -2  -1  -6    9.22    2.25
   2   1  -6   11.25    1.86
   2   1  -6    9.11    1.63
  -2  -1  -6   13.45    2.29
   2   1  -6   12.47    2.29
   2   1  -6   10.41    2.21
   2  -1  -6   10.36    2.33
  -2  -1   6   12.30    2.17
  -2  -1  -6   12.88    2.81
  -2   1   6   14.61    1.49
  -2   1   6   10.69    2.09
   2  -1  -6   12.59    2.51
   2  -1   6   13.07    2.37
   2   1  -7  115.61    6.05
  -2  -1   7  112.82    5.96
   2  -1  -7  111.09    5.66
   2  -1  -7  116.05    4.29
   2   1   7  118.54    6.81
   2  -1  -7  120.30    6.84
   2   1  -7  118.58    5.88
  -2   1   7  116.57    4.28
  -2   1  -7  117.16    6.81
  -2  -1  -7  108.80    6.61
  -2  -1  -7  125.86    6.75
   2   1  -7  122.36    6.79
   2  -1  -7  122.87    6.98
  -2   1  -7  116.11    6.72
  -2   1   7  110.81    5.68
  -2  -1  -7  109.14    6.60
   2   1  -8 1232.94   19.69
  -2  -1   8 1200.07   19.46
  -2   1   8 1200.40   20.11
  -2   1  -8 1179.89   11.79
   2  -1  -8 1292.82   23.22
  -2   1  -8 1198.36   22.17
  -2   1   8 1181.63   15.03
   2  -1  -8 1262.39   20.16
   2  -1  -8 1176.88   14.82
  -2  -1  -8 1184.98   22.69
   2  -1  -9    3.59    1.33
  -2   1  -9    3.66    0.68
   2   1  -9    5.96    1.82
  -2   1   9    5.67    1.45
   2  -1  -9    5.39    1.42
  -2  -1  -9    5.24    3.05
   2  -1  -9    2.03    2.25
  -2  -1   9    8.54    2.26
  -2   1  -9   13.96    4.68
  -2  -1  10  677.01   16.25
   2   1 -10  672.39   15.80
  -2  -1 -10  665.19   18.40
  -2   1 -10  633.94    8.36
  -2  -1 -10  681.02   11.83
  -2   1 -10  686.61   18.54
  -2   1  10  649.19   12.89
   2  -1 -10  640.55   12.76
  -2  -1  11    0.74    2.39
   2  -1 -11    1.43    1.32
  -2   1 -11    0.12    0.51
  -2   1  11    1.68    1.78
  -2  -1 -11    3.16    1.70
  -2   1  12 1749.54   24.06
  -2   1 -12 1687.50   13.47
  -2  -1 -12 1820.50   32.65
   2  -1 -12 1800.73   24.23
  -2   1 -12 1808.12   32.93
  -2  -1 -12 1787.31   21.50
  -2  -1  12 1827.89   28.55
  -2   1  13    2.82    3.46
  -2   1 -13    2.48    0.79
  -2  -1 -13    1.67    1.45
   2  -1 -13    2.69    1.72
  -2  -1  13    2.60    2.25
  -2  -1 -14  921.59   24.98
  -2   1 -14  842.05    9.44
  -2   1  14  885.75   19.12
  -2  -1 -14  887.19   16.73
  -2  -1  14  890.92   21.85
  -2   1 -14  936.47   25.22
  -2  -1 -15  485.91   18.86
  -2  -1  15  429.59   15.71
  -2   1 -15  449.09   18.57
  -2  -1 -15  414.51   11.97
  -2   1  15  435.69   14.23
  -2   1 -15  387.16    6.39
  -2  -1  16   69.36    7.13
  -2   1 -16   81.41    8.68
  -2  -1 -16   81.08    8.79
  -2  -1 -16   76.67    5.53
  -2   1 -16   66.51    2.62
  -2   1  16   70.79    6.25
  -2   1 -17   76.92    9.35
  -2  -1 -17   69.42    8.95
  -2  -1 -17   45.94    4.72
   2  -1 -17   70.69    7.69
  -2   1 -17   41.64    2.01
  -2  -1  17   53.67    6.45
  -2  -1  18  979.51   26.21
  -2   1 -18 1015.29   30.06
  -2  -1 -18 1020.59   29.76
  -2  -1 -18  980.99   20.44
   2  -1 -18 1006.56   27.31
  -2  -1 -19    7.24    3.36
  -2  -1  19    8.81    6.03
   2  -1 -19   19.26    5.03
  -2  -1 -20   71.79    6.00
  -2  -1 -20   67.94    8.59
  -2   1 -20   66.71    8.57
  -2  -1  20   68.23    7.77
   2  -1 -20   68.67    7.57
  -2   1 -21   42.62    7.65
  -2  -1  21   43.98    6.66
  -2  -1 -21   51.08    7.95
   2  -1 -21   53.36    7.46
  -2   1 -22  205.27   15.54
  -2  -1 -22  180.67   14.36
  -2  -1  22  179.51   13.16
   2  -1 -22  202.57   14.12
   2  -1 -23   46.18    7.49
   2   1 -23   43.17    7.37
  -2  -1 -23   40.94    7.55
  -2   1 -23   39.83    7.59
  -2  -1  23   34.88    6.65
  -2  -1  24   25.07    5.61
   2  -1 -24   24.94    5.82
   2   1 -24   27.15    6.18
  -2  -1 -24   23.67    6.34
  -2   1 -24   30.43    7.42
   2  -1 -25  105.67   11.52
  -2   1 -25   98.01   11.84
   2   1 -25  100.11   11.75
  -2  -1 -25   96.40   11.81
   2  -1 -26  228.35   16.77
  -2   1 -26  217.98   17.80
  -2  -1 -26  258.06   19.26
   2   1 -26  215.16   16.99
   2   1 -27   53.32    9.63
  -2  -1 -27   42.10    9.14
   2  -1 -27   47.72    8.77
  -2   1 -27   55.81   10.05
   2   1 -28  240.65   18.98
  -2  -1 -28  225.21   18.81
   2  -1 -28  199.00   16.89
  -2   1 -28  266.37   20.35
   2   1 -29  118.30   13.75
   2  -1 -29  104.86   12.69
   2  -1 -30   16.62    5.82
  -2   2   0 1513.83   17.50
  -2   2   0 1582.28   12.22
   2  -2   0 1536.93   12.24
  -2  -2   0 1562.40   16.98
   2   2   0 1534.09   16.78
   2   2   0 1572.71   20.98
  -2   2   0 1540.23   20.09
  -2  -2   0 1548.98   16.85
  -2   2   0 1546.92   15.44
  -2   2   0 1548.81   16.49
  -2  -2   0 1511.79   15.44
   2   2   0 1600.30   15.53
  -2  -2  -1  235.35    8.27
  -2  -2  -1  239.29    6.71
   2  -2  -1  245.45    6.98
  -2   2   1  234.26    5.32
   2   2  -1  237.16    5.88
  -2  -2  -1  230.19    6.52
  -2  -2   1  247.63    6.92
   2  -2  -1  235.64    6.12
   2   2  -1  238.38    6.93
  -2   2   1  240.44    7.99
   2   2   1  243.59    8.40
  -2   2   1  247.53    8.17
  -2   2  -1  241.20    6.87
  -2   2   1  246.13    7.05
  -2   2  -1  243.39    5.69
  -2   2  -1  239.03    6.95
  -2   2   1  244.85    6.14
  -2  -2   1  244.90    8.60
   2  -2   1  240.66    6.89
  -2  -2   1  233.15    6.65
   2   2   1  236.03    8.05
   2   2   1  244.68    6.47
   2  -2   2    1.08    1.40
   2  -2  -2    0.95    0.97
  -2   2   2   -3.16    2.38
   2  -2  -2    0.27    2.10
   2   2   2    0.06    1.24
   2   2   2    0.07    1.19
   2  -2  -2   -0.32    1.29
   2   2  -2    3.29    1.43
  -2   2   2    0.52    1.41
  -2  -2   2   -0.32    1.09
  -2  -2   2   -0.41    1.66
  -2  -2   2    1.81    2.12
   2   2  -2    3.87    2.12
  -2  -2  -2    1.89    2.03
   2  -2  -2    4.78    1.99
   2   2   2    2.11    1.26
  -2   2   2   -2.34    1.89
   2   2  -2    0.24    1.29
  -2   2  -2    4.81    1.91
  -2   2   2    1.27    0.64
  -2  -2   2    1.19    1.43
  -2   2  -2    1.61    1.19
  -2  -2  -2    1.18    1.17
  -2  -2  -3 3612.77   34.06
   2   2  -3 3611.03   28.58
   2   2   3 3616.92   32.06
  -2  -2   3 3549.29   31.77
  -2   2   3 3601.00   27.68
   2  -2  -3 3639.40   32.26
  -2   2   3 3537.98   30.99
  -2  -2  -3 3560.08   28.96
   2   2   3 3573.60   28.79
  -2   2   3 3553.69   32.19
  -2  -2   3 3588.79   32.70
  -2   2  -3 3610.21   30.49
  -2   2  -3 3499.46   27.64
   2  -2  -3 3547.95   27.61
  -2  -2  -3 3530.42   31.73
   2  -2  -3 3592.07   31.33
  -2  -2   3 3526.28   28.11
   2   2   3 3559.56   33.16
   2  -2   3 3544.08   22.77
   2   2  -3 3555.33   29.09
  -2   2  -4 2495.91   18.21
   2   2  -4 2483.17   25.06
  -2   2  -4 2432.49   24.87
   2   2  -4 2499.21   27.71
   2   2   4 2516.25   27.50
  -2  -2   4 2451.31   27.31
   2   2  -4 2519.43   27.34
   2  -2  -4 2490.44   27.88
   2   2  -4 2457.69   25.94
   2  -2  -4 2475.69   24.30
  -2  -2  -4 2486.19   25.98
   2  -2  -4 2451.86   27.02
  -2   2   4 2484.32   26.89
  -2   2  -4 2462.90   26.92
  -2  -2  -4 2433.77   27.08
   2   2   4 2436.25   25.73
  -2  -2  -4 2434.95   28.79
  -2  -2   4 2398.29   26.81
   2   2   4 2513.50   28.71
  -2   2   4 2434.32   27.58
  -2  -2   4 2454.69   25.01
   2  -2   4 2491.27   27.19
  -2   2   4 2444.52   24.13
  -2  -2  -5 1671.88   23.35
   2   2  -5 1678.53   22.83
  -2  -2   5 1666.07   23.07
   2   2  -5 1736.67   23.30
   2   2  -5 1669.70   21.94
  -2  -2  -5 1714.29   22.98
   2  -2  -5 1701.12   24.09
   2  -2  -5 1708.36   21.27
  -2   2   5 1700.93   23.30
   2  -2  -5 1711.43   23.52
   2  -2   5 1669.66   23.87
   2   2  -5 1690.60   23.03
   2   2   5 1680.59   22.67
  -2   2  -5 1653.64   22.11
  -2   2   5 1653.88   21.19
   2   2   5 1709.96   23.55
  -2  -2  -5 1700.57   24.58
  -2   2   5 1717.85   24.12
   2   2   5 1760.32   24.94
  -2  -2   5 1690.58   22.72
  -2   2  -5 1698.11   14.23
  -2   2  -5 1741.89   23.93
   2   2   6  505.32   10.94
  -2   2  -6  505.09   13.32
  -2   2  -6  495.94    7.38
   2   2  -6  530.77   13.21
   2  -2  -6  499.15   13.41
  -2  -2  -6  510.35   13.47
  -2  -2  -6  530.83   13.61
   2  -2  -6  515.94   12.31
  -2  -2  -6  537.71   14.54
  -2   2   6  505.65   12.34
   2  -2  -6  524.59   13.95
   2   2   6  521.10   14.13
   2   2  -6  520.71   12.97
   2   2   6  520.52   13.47
   2  -2   6  502.83    8.05
   2  -2   6  543.66   14.44
  -2   2  -6  520.10   13.79
   2   2  -6  521.42   12.98
  -2  -2   6  493.59   13.03
  -2   2   6  497.02   13.78
   2   2  -7  678.56   14.93
   2  -2  -7  700.96   15.16
   2   2  -7  686.89   15.61
   2   2   7  679.70   12.85
  -2  -2  -7  659.26   15.86
   2  -2   7  662.81    8.47
   2   2   7  687.70   16.53
   2   2  -7  681.76   15.65
  -2   2  -7  666.22   16.16
   2  -2  -7  652.92    7.66
   2  -2  -7  670.39   16.24
  -2  -2   7  691.49   15.78
  -2  -2  -7  704.21   16.44
  -2  -2  -7  678.12   16.76
   2  -2   7  685.64   16.93
  -2   2   7  676.92   15.01
   2   2  -8    0.92    1.22
   2  -2  -8    0.43    0.63
  -2  -2   8    0.61    1.75
   2   2   8   -1.12    1.50
   2  -2  -8   -0.76    1.55
  -2   2   8   -0.38    1.75
  -2  -2  -8   -1.40    2.47
   2  -2   8    2.14    2.97
   2  -2  -8    0.88    2.28
   2   2   8   -1.62    2.12
  -2  -2  -8    2.55    2.03
   2   2  -8    1.04    1.34
  -2   2  -8    3.52    2.65
  -2   2   9   37.99    4.24
   2  -2  -9   36.75    2.54
  -2  -2  -9   40.05    4.44
  -2   2  -9   36.59    4.39
  -2  -2   9   38.22    4.20
   2  -2   9   32.67    4.31
   2   2   9   35.03    4.35
   2   2  -9   36.59    3.63
  -2  -2  -9   39.27    4.69
   2  -2  -9   38.01    4.51
  -2  -2 -10   12.19    2.98
  -2  -2  10   16.95    3.15
   2  -2 -10   14.60    1.88
   2   2 -10   16.16    2.69
   2  -2 -10    9.95    2.98
  -2   2  10    9.35    2.57
  -2  -2 -10   14.05    3.07
  -2   2 -10   15.53    3.95
   2  -2 -11  485.76   10.76
   2  -2 -11  497.98   13.60
  -2  -2 -11  503.83   16.79
  -2   2  11  508.41   16.05
   2  -2 -11  505.48   16.69
  -2  -2  11  487.02   15.54
   2   2 -11  498.68   13.67
  -2   2 -11  507.79   16.72
  -2  -2 -12   11.16    4.42
  -2  -2  12    4.31    2.49
   2   2 -12    8.65    2.47
  -2  -2 -12   12.24    2.89
   2  -2 -12    8.06    1.84
   2  -2 -12   15.37    3.73
  -2   2  12   11.11    3.45
   2  -2 -13 1695.96   22.85
  -2  -2 -13 1644.72   24.45
   2   2 -13 1647.60   26.02
  -2  -2  13 1717.68   30.73
  -2  -2 -13 1736.12   33.34
  -2   2 -13 1733.53   33.42
   2  -2 -13 1723.91   27.91
  -2  -2  14    8.45    3.35
   2  -2 -14   11.16    2.17
  -2  -2 -14   15.87    4.91
   2  -2 -14   23.27    5.13
  -2   2 -14   29.70    6.78
  -2  -2 -14   12.42    3.12
  -2   2 -15   37.30    5.89
   2  -2 -15   33.71    4.65
  -2  -2 -15   36.49    4.25
  -2  -2  15   32.79    4.97
   2  -2 -15   32.75    3.63
  -2  -2 -15   31.36    4.99
   2  -2 -16   80.70    7.22
  -2  -2 -16   88.75    8.66
  -2  -2 -16   85.54    6.26
  -2  -2  16   91.81    8.31
  -2   2 -16   91.30    8.98
  -2  -2 -17    5.92    4.01
  -2   2 -17    3.41    3.54
  -2  -2 -17    0.39    2.14
   2  -2 -17    0.87    2.55
  -2  -2  17    3.21    3.04
  -2  -2 -18   35.88    5.99
  -2  -2 -18   39.44    4.78
  -2   2 -18   41.83    6.93
   2  -2 -18   32.27    5.04
  -2  -2  18   39.83    6.37
  -2  -2 -19   49.61    5.33
  -2  -2  19   42.67    6.28
   2  -2 -19   49.01    6.33
  -2  -2 -19   50.21    7.39
  -2   2 -19   53.65    7.83
  -2  -2  20    3.67    3.24
  -2  -2 -20    4.60    2.95
   2  -2 -20    0.25    2.61
  -2  -2 -20    7.97    4.87
  -2   2 -20    4.26    3.45
  -2   2 -21   75.49    9.33
   2  -2 -21   83.73    8.81
  -2  -2 -21   83.47   10.07
  -2  -2  21   73.15    8.48
  -2  -2 -21   81.09    7.12
   2  -2 -22   44.69    6.86
  -2   2 -22   41.43    7.61
  -2  -2 -22   40.37    7.27
  -2  -2  22   40.95    6.57
   2  -2 -23    6.65    3.37
  -2  -2  23    4.15    3.34
  -2  -2 -23    6.80    3.69
  -2   2 -23    5.96    3.75
   2  -2 -24    8.68    4.19
  -2  -2 -24    5.74    3.90
  -2   2 -24    5.34    4.08
  -2  -2  24    1.21    2.76
  -2  -2 -25    0.15    3.57
   2   2 -25   -5.56    3.97
  -2  -2  25    5.45    4.32
  -2   2 -25    0.86    3.84
   2  -2 -25    1.15    2.94
  -2  -2 -26   16.08    5.94
   2   2 -26    9.10    4.42
   2  -2 -26   11.68    4.58
  -2   2 -26   12.48    5.33
  -2  -2  26   18.34    5.31
  -2  -2 -27   20.17    6.78
  -2   2 -27   19.71    6.52
   2  -2 -27   21.80    5.99
   2   2 -27   22.17    6.48
   2  -2 -28    4.60    3.86
  -2   2 -28   11.74    5.70
  -2  -2 -28    4.42    5.14
   2   2 -28    7.14    5.04
   2   2 -29   32.97    7.71
   2  -2 -29   21.51    6.07
   2  -2 -30    4.43    3.98
  -2  -3   0 1084.67   13.40
  -2   3   0 1088.80   17.42
   2   3   0 1077.65   16.12
   2  -3   0 1062.40   17.59
  -2   3   0 1078.41   13.79
  -2   3   0 1076.59   14.05
   2   3   0 1065.04   13.29
   2  -3   0 1093.14   14.14
  -2   3   0 1109.88   10.58
  -2  -3   0 1071.64   13.20
  -2   3   0 1103.95   17.79
  -2  -3   0 1083.51   16.12
  -2   3   0 1079.90   17.37
   2   3   0 1103.10   19.38
  -2   3   1  532.71   12.19
  -2   3   1  532.49    8.81
   2  -3   1  528.92   11.91
  -2  -3   1  519.85    9.30
   2  -3  -1  518.24   12.87
  -2   3  -1  516.23   12.46
  -2  -3   1  503.90   13.16
   2   3   1  530.73   11.51
  -2  -3   1  525.08    9.78
  -2  -3  -1  521.30    9.17
  -2   3   1  546.69   12.13
  -2  -3  -1  523.08   11.52
   2   3  -1  523.07    9.77
  -2   3   1  520.39    8.66
   2  -3  -1  519.27    8.77
  -2   3  -1  525.84   10.74
  -2   3   1  526.51   12.21
   2  -3  -1  534.29   12.21
   2  -3   1  524.90   10.84
  -2   3  -1  527.99    8.76
   2   3  -1  522.77   11.08
   2   3   1  540.27   13.59
   2  -3   2   30.79    3.23
   2  -3  -2   22.59    2.97
  -2  -3  -2   20.82    2.16
   2   3   2   19.18    2.60
  -2  -3   2   25.75    2.34
  -2   3  -2   23.86    2.64
  -2   3   2   19.20    2.70
   2   3   2   18.96    2.88
   2  -3   2   25.65    3.01
   2   3  -2   18.98    2.16
   2  -3  -2   22.75    2.84
  -2  -3   2   16.95    2.88
   2   3   2   18.37    2.68
  -2   3   2   12.23    2.17
   2  -3  -2   20.57    1.61
  -2  -3  -2   20.80    2.64
   2  -3  -2   23.91    3.47
   2  -3  -2   15.75    2.58
   2   3  -2   21.84    2.58
  -2   3   2   18.41    1.46
  -2   3   2   17.94    2.42
  -2  -3  -2   18.22    2.81
  -2   3  -2   18.55    2.19
   2   3  -2   23.37    2.77
   2   3  -3  138.56    5.46
   2   3  -3  138.28    5.85
  -2   3  -3  143.94    5.83
   2  -3  -3  143.81    6.66
   2   3   3  146.75    6.76
  -2  -3   3  143.91    7.33
  -2   3   3  135.11    6.42
  -2   3   3  142.87    6.42
   2   3  -3  148.72    6.22
  -2  -3   3  140.12    5.50
   2  -3  -3  141.78    6.71
  -2  -3   3  129.24    7.08
  -2  -3  -3  147.19    7.36
   2  -3   3  141.84    6.61
  -2   3   3  146.89    6.81
   2   3   3  144.35    6.66
   2   3   3  163.67    7.77
  -2   3  -3  145.94    6.58
  -2  -3  -3  138.19    6.55
   2  -3  -3  143.90    3.92
   2  -3  -3  150.04    6.81
   2  -3  -4   24.36    3.09
  -2   3   4   28.73    3.49
  -2  -3   4   24.52    3.46
   2  -3  -4   31.39    3.44
   2   3   4   23.82    3.14
  -2  -3   4   28.53    3.65
   2   3   4   26.79    3.18
   2   3  -4   31.07    2.97
  -2  -3  -4   27.17    3.30
   2  -3  -4   25.56    3.16
  -2   3  -4   26.60    3.02
  -2  -3  -4   28.81    3.26
   2   3  -4   26.44    2.97
  -2   3   4   30.66    3.43
   2   3  -4   26.77    3.25
   2   3   4   30.77    3.61
  -2  -3  -4   29.82    3.81
   2  -3   4   25.25    3.36
  -2   3   4   26.91    3.00
   2  -3  -4   28.77    1.80
  -2   3  -4   27.76    2.68
   2   3   5  172.47    8.29
  -2  -3   5  168.56    8.19
   2   3  -5  179.71    8.30
   2  -3  -5  174.60    7.73
   2   3  -5  172.00    6.95
   2   3   5  171.76    7.68
  -2  -3  -5  178.96    8.07
   2  -3  -5  168.89    7.55
  -2  -3  -5  178.91    8.58
  -2  -3  -5  171.88    7.73
  -2   3   5  171.13    7.47
   2  -3  -5  166.02    3.68
  -2   3  -5  171.11    6.00
   2   3   5  174.66    7.97
  -2   3   5  189.67    8.23
  -2  -3   5  172.39    7.99
   2   3  -5  170.80    7.25
   2  -3   5  171.31    8.13
  -2   3   5  181.25    7.96
   2  -3  -5  170.69    7.81
  -2   3  -5  175.06    7.95
  -2  -3  -6  327.41   11.39
   2  -3  -6  313.26   10.69
  -2   3   6  311.81   10.85
   2   3   6  313.82   10.04
   2   3  -6  311.48   10.01
  -2   3  -6  317.60    8.03
   2  -3  -6  337.45   11.12
   2  -3  -6  311.91   11.02
   2  -3  -6  310.22    6.21
   2  -3   6  309.66   11.43
  -2   3   6  313.07   11.08
   2   3   6  324.55   10.73
  -2  -3  -6  314.97   11.75
  -2  -3   6  322.99   11.49
  -2  -3   6  314.93   10.63
   2   3   6  299.73   11.08
  -2  -3  -6  317.12   10.75
  -2  -3   7   30.24    4.06
  -2   3   7   28.71    3.82
   2   3   7   28.50    4.07
   2   3   7   27.32    3.18
  -2  -3   7   27.43    3.48
   2  -3  -7   29.76    3.75
   2   3  -7   26.62    3.20
   2  -3  -7   36.03    2.89
  -2  -3  -7   26.77    3.56
  -2  -3  -7   26.04    3.72
   2  -3   7   38.08    5.00
   2  -3  -7   30.25    3.73
   2   3   8  667.72   15.11
   2  -3  -8  670.69   16.90
  -2  -3   8  646.33   17.19
  -2   3  -8  656.22   17.07
   2   3  -8  666.53   16.23
   2   3   8  638.07   17.54
  -2  -3  -8  652.59   17.97
   2  -3  -8  642.43   11.71
  -2   3   8  661.70   16.91
   2  -3   8  672.45   18.18
  -2  -3  -8  656.66   16.41
  -2  -3   8  643.45   15.39
   2  -3  -9  343.65   12.65
   2   3   9  345.71   11.05
   2  -3  -9  331.32    6.05
  -2  -3  -9  337.11   12.17
   2  -3   9  345.79   13.63
   2   3   9  353.03   13.53
  -2  -3  -9  358.54   13.65
  -2   3   9  345.35   12.87
  -2  -3   9  347.78   13.15
  -2   3  -9  329.91   13.00
   2  -3  -9  344.77    9.40
  -2  -3 -10  114.10    7.46
  -2  -3  10  115.37    7.89
   2   3  10  123.82    8.43
  -2  -3 -10  120.65    8.45
   2  -3 -10  121.95    8.04
  -2   3 -10  134.86    8.73
   2  -3  10  118.05    8.72
   2  -3 -10  111.81    4.14
   2  -3 -10  117.70    6.13
   2   3 -10  126.47    6.95
  -2   3  10  115.83    7.86
   2  -3 -11  413.74    8.84
   2  -3  11  408.68   16.06
   2   3  11  402.66   15.81
  -2  -3 -11  413.75   15.74
   2  -3 -11  405.12   14.85
  -2   3  11  425.43   15.22
  -2   3 -11  408.87   15.39
  -2  -3  11  406.38   14.99
   2   3 -11  416.73   12.65
  -2  -3 -11  412.44   14.45
   2  -3 -11  409.57   11.95
  -2  -3 -12    1.52    2.23
  -2  -3  12    6.75    3.61
   2  -3 -12    1.69    0.92
  -2   3  12   -0.68    2.25
   2  -3 -12   -1.66    3.08
   2   3  12    1.22    2.35
   2  -3 -12    3.44    2.06
  -2   3 -12    6.08    3.04
  -2  -3 -12    1.67    2.76
   2   3 -12   -0.54    1.66
   2  -3  12    7.13    4.27
   2  -3 -13   85.59    4.73
  -2  -3 -13   82.43    7.13
  -2   3  13   95.02    7.95
  -2  -3 -13   90.14    8.04
   2  -3 -13   81.70    7.20
  -2  -3  13   82.49    7.51
   2   3 -13   82.52    5.91
   2  -3 -13   83.12    6.16
  -2   3 -13   84.52    7.72
   2  -3  13   83.52    8.21
  -2  -3  14    5.84    2.97
   2  -3 -14    9.99    2.07
   2  -3 -14    6.96    2.36
  -2  -3 -14    5.74    2.89
  -2  -3 -14    9.93    3.41
  -2   3  14    7.26    3.32
   2  -3 -14    1.06    2.90
  -2  -3 -14    5.37    2.96
  -2   3 -14   -1.12    2.98
   2  -3  14    8.92    3.76
   2  -3 -15   88.28    5.51
  -2  -3 -15   88.30    7.00
  -2  -3 -15   80.14    7.39
  -2  -3  15   85.28    8.03
  -2   3  15   88.93    8.34
  -2  -3 -15   91.88    8.62
   2  -3 -15   86.39    6.88
  -2   3 -15   84.79    8.28
   2  -3  15   91.30    8.94
  -2  -3  16   -0.40    2.71
   2  -3 -16    0.18    2.43
  -2  -3 -16    2.12    2.86
  -2  -3 -16    2.37    3.49
   2  -3 -16   -1.65    1.25
  -2   3 -16   -3.31    3.21
   2  -3  16   -0.60    2.92
  -2   3 -17  273.41   15.64
   2  -3 -17  285.38   13.56
  -2  -3 -17  298.13   12.82
  -2  -3 -17  268.53   15.36
  -2  -3  17  287.79   15.16
  -2  -3 -18   93.21    9.56
  -2   3 -18   97.93   10.16
  -2  -3 -18   90.93    7.67
   2  -3 -18   97.73    8.48
  -2  -3  18   84.73    8.87
  -2  -3 -19  197.68   10.97
   2  -3 -19  200.85   12.38
  -2  -3  19  208.99   13.69
  -2  -3 -19  214.37   14.32
  -2   3 -19  194.45   14.36
  -2  -3  20   40.73    6.66
  -2   3 -20   41.77    7.54
  -2  -3 -20   44.39    7.63
   2  -3 -20   35.14    5.81
  -2  -3 -20   38.82    5.52
  -2   3 -21    4.11    3.37
  -2  -3  21    7.27    3.22
  -2  -3 -21   10.27    4.04
  -2  -3 -21   15.66    4.06
   2  -3 -21   11.80    3.78
  -2  -3  22   50.01    7.54
   2  -3 -22   52.64    7.23
  -2   3 -22   44.84    7.57
  -2  -3 -22   47.24    7.58
  -2  -3 -23    0.70    3.25
  -2   3 -23    4.86    4.15
  -2  -3  23    2.32    2.86
   2  -3 -23    7.10    3.94
   2  -3 -24   13.09    4.44
  -2   3 -24    6.30    4.49
  -2  -3  24    4.37    2.76
  -2  -3 -24   10.26    4.68
  -2  -3  25  141.06   12.90
  -2   3 -25  142.25   14.28
   2  -3 -25  139.12   12.49
  -2  -3 -25  135.16   13.48
  -2  -3 -26    2.62    4.36
   2  -3 -26    6.14    3.52
  -2   3 -26    8.64    5.50
  -2  -3  26    2.30    3.69
   2   3 -27    6.80    4.87
   2  -3 -27    5.39    3.59
   2  -3 -27    7.94    4.31
  -2  -3  27   14.65    5.27
  -2   3 -27    8.88    5.19
  -2  -3 -27   11.54    4.87
   2  -3 -28   24.46    6.17
  -2  -3  28   32.60    7.35
   2  -3 -28   26.38    6.91
  -2  -3 -28   34.27    7.67
   2   3 -28   41.23    9.05
   2  -3 -28   36.70    7.26
  -2  -3 -28   33.93    7.19
  -2  -3 -29   77.02   10.62
  -2  -3 -30   11.47    5.36
  -2  -4   0    3.32    1.97
   2  -4   0    3.33    1.21
  -2  -4   0    3.50    0.92
  -2   4   0    1.36    1.47
  -2  -4   0    5.98    2.01
  -2   4   0    7.43    2.27
   2   4   0    6.74    2.19
   2  -4   0    3.88    2.73
   2   4   0    7.23    1.57
  -2   4   0    6.11    1.98
  -2   4   0    3.65    1.17
  -2  -4   0    3.40    0.89
  -2   4   0    3.74    2.09
  -2  -4   1    4.25    1.04
   2   4   1    1.79    1.64
   2  -4   1    8.07    3.22
   2   4  -1    6.29    2.33
  -2  -4  -1    3.22    1.58
  -2   4   1    4.23    1.19
  -2   4  -1    1.33    1.59
  -2   4   1    2.17    0.85
  -2  -4   1    5.52    2.35
  -2   4   1    8.00    2.83
  -2  -4  -1    5.59    1.15
  -2   4   1    4.29    1.50
   2  -4   1    3.72    1.53
  -2   4   1    2.73    1.49
   2  -4  -1    4.33    1.23
  -2   4  -1    4.20    1.41
   2   4  -1    3.46    1.12
  -2   4  -1    5.82    2.72
   2  -4  -1    5.88    2.71
  -2   4  -2   84.68    5.07
   2  -4  -2   94.20    6.01
   2   4   2   79.49    5.58
  -2  -4   2   83.16    6.15
  -2   4   2   89.37    6.07
  -2   4   2   80.91    2.96
  -2   4  -2   86.20    5.41
   2  -4  -2   77.67    5.84
   2   4  -2   84.49    3.90
  -2  -4   2   81.69    3.73
   2   4  -2   84.30    4.23
  -2  -4  -2   80.96    3.35
  -2   4   2   83.05    3.73
   2   4  -2   81.93    5.34
  -2   4   2   80.41    5.02
  -2  -4  -2   88.79    5.73
   2  -4   2   83.47    5.17
  -2   4   2   79.18    4.88
   2  -4  -2   80.90    3.69
   2  -4  -3  119.74    6.39
   2  -4  -3  118.10    6.80
  -2   4  -3  121.25    6.39
   2   4   3  113.39    6.60
   2   4  -3  125.87    6.62
  -2  -4  -3  113.89    6.71
   2   4  -3  111.93    5.24
  -2   4   3  114.35    6.79
  -2   4   3  115.29    3.85
  -2   4   3  123.12    6.07
   2   4   3  117.63    6.33
   2  -4  -3  117.24    6.21
   2   4  -3  114.41    4.78
   2  -4   3  110.37    6.32
  -2  -4  -3  111.93    7.04
  -2   4   3  120.51    6.34
   2  -4  -3  118.77    7.34
  -2   4  -3  123.05    6.36
   2  -4  -3  119.70    3.93
  -2  -4   3  119.30    7.52
  -2   4  -4  396.69   11.04
   2   4   4  378.76   11.50
  -2   4  -4  398.82   12.08
   2  -4  -4  387.96   12.34
   2  -4  -4  383.67   11.45
   2  -4   4  370.54   12.00
   2   4  -4  385.43   10.29
  -2   4   4  379.28   12.44
   2  -4  -4  369.26   13.10
  -2   4   4  388.52   11.09
   2  -4  -4  382.20   11.04
  -2   4   4  390.26   11.61
  -2  -4  -4  409.69   12.92
  -2  -4  -4  385.95   13.14
   2   4  -4  383.71    9.34
   2   4   4  379.24   12.65
  -2  -4   4  387.79   13.22
   2  -4  -4  371.30    5.89
  -2   4   5   35.68    3.71
  -2  -4   5   41.15    4.43
  -2  -4  -5   51.21    5.24
   2  -4  -5   30.93    4.02
  -2   4   5   35.22    3.63
   2   4   5   35.34    4.21
  -2   4   5   39.82    4.28
  -2  -4   5   38.88    4.58
   2   4  -5   34.25    3.29
   2  -4  -5   37.74    3.73
   2  -4  -5   40.47    3.91
   2   4  -5   44.33    3.45
  -2   4  -5   40.02    3.64
   2  -4   5   34.62    4.28
   2   4   5   43.33    4.03
   2  -4  -6  558.60    8.09
  -2  -4  -6  564.89   16.66
   2   4   6  577.35   14.66
  -2   4  -6  565.76   12.74
   2   4   6  592.17   16.49
   2  -4  -6  556.83   14.41
   2   4  -6  575.74   13.19
  -2  -4   6  583.22   15.37
  -2   4   6  566.75   15.15
   2  -4  -6  569.01   17.24
  -2   4   6  558.13   15.72
  -2  -4   6  559.54   16.51
   2  -4   6  556.71   15.97
  -2  -4  -6  570.86   14.60
  -2  -4   7  341.28   11.83
  -2  -4   7  340.65   13.29
  -2  -4  -7  334.60   13.09
   2   4  -7  338.63   10.81
  -2   4   7  339.18   12.80
   2  -4  -7  345.62   11.70
  -2  -4  -7  337.64   11.56
   2   4   7  345.44   13.09
   2  -4   7  349.80   13.33
   2  -4  -7  337.06    7.27
   2  -4  -7  322.86   13.28
  -2  -4   8  891.41   21.75
  -2  -4  -8  875.82   21.86
   2  -4  -8  902.19   19.59
   2  -4   8  923.32   22.09
  -2  -4  -8  870.44   19.30
   2  -4  -8  880.48   13.28
  -2  -4   8  861.68   19.02
   2   4  -8  892.80   18.58
   2   4   8  930.69   22.20
  -2   4   8  878.47   21.00
   2  -4  -9  182.40    6.65
   2  -4  -9  167.70    9.10
  -2  -4   9  172.36   10.09
  -2  -4  -9  177.68    8.96
   2   4   9  172.22   10.06
   2  -4  -9  164.08    3.74
  -2   4   9  181.15    9.95
  -2  -4   9  168.59    8.36
  -2  -4  -9  169.30    9.89
   2  -4   9  195.84   10.82
  -2   4  10  333.23   13.87
   2  -4 -10  335.53    6.27
   2  -4 -10  343.20   13.20
   2  -4  10  371.65   15.23
  -2  -4 -10  346.87   14.26
   2   4  10  337.38   14.42
   2  -4 -10  344.63    9.93
  -2  -4  10  348.61   14.38
  -2  -4  10  326.75   11.62
  -2  -4 -10  342.25   12.91
   2  -4 -11    0.54    2.42
  -2  -4  11    1.10    2.36
   2   4  11   -1.00    2.91
   2  -4 -11    1.93    0.79
  -2  -4 -11    2.42    2.27
  -2   4  11   -0.41    2.06
  -2  -4 -11    2.75    3.07
   2  -4  11    3.04    3.48
   2  -4 -11   -0.23    1.40
   2  -4 -12   15.46    3.51
  -2   4  12   19.24    4.06
   2   4  12   15.26    3.65
  -2  -4 -12   18.59    3.59
   2  -4  12   18.04    4.27
   2  -4 -12   17.65    1.90
  -2  -4 -12   15.41    4.06
   2  -4 -12   15.52    2.51
  -2  -4  12   16.66    3.84
   2   4  13   13.67    3.94
   2  -4 -13   10.29    1.65
   2  -4  13    7.95    3.37
   2  -4 -13    8.65    2.99
  -2  -4 -13    9.11    3.22
   2  -4 -13    5.30    1.63
  -2   4  13    8.34    2.88
  -2  -4 -13    7.11    3.35
  -2  -4  13    8.39    3.14
  -2  -4  14   95.74    8.59
  -2   4  14   86.77    8.27
  -2   4 -14   90.19    8.59
   2  -4  14   92.51    8.87
   2   4  14   87.58    8.53
  -2  -4 -14   89.83    8.37
   2  -4 -14   90.57    4.94
   2  -4 -14   88.31    6.50
  -2  -4 -14   94.15    7.77
   2  -4 -14   94.93    8.08
   2  -4 -15  240.38    8.43
  -2   4  15  248.61   14.12
   2   4  15  233.81   14.20
   2  -4  15  236.03   14.24
   2  -4 -15  251.60   13.49
  -2  -4 -15  237.26   12.71
  -2  -4 -15  263.57   14.35
   2  -4 -15  255.17   11.55
  -2   4 -15  234.55   14.16
  -2  -4  15  236.21   13.97
  -2  -4  16   54.51    7.15
   2  -4 -16   60.95    7.33
   2  -4 -16   60.37    5.99
   2  -4  16   70.09    8.02
  -2   4 -16   61.59    7.62
  -2  -4 -16   64.60    7.75
  -2  -4 -16   60.30    6.92
  -2   4  16   52.89    6.84
   2  -4 -17   -1.06    2.64
  -2  -4 -17   -0.11    3.06
  -2  -4  17    0.54    2.76
  -2  -4 -17   -6.28    4.66
   2  -4  17   -3.04    4.43
  -2   4  17   -5.71    4.38
  -2   4 -17   -1.77    3.61
   2  -4 -17   -3.45    3.34
  -2  -4  18    4.70    3.08
   2  -4  18    2.94    3.48
   2  -4 -18    2.51    2.90
   2  -4 -18    3.73    1.99
  -2   4 -18    2.11    2.76
  -2  -4 -18    2.91    2.51
  -2  -4 -18    6.40    3.26
  -2  -4  19    1.18    2.97
  -2  -4 -19   -2.50    3.00
  -2  -4 -19   -2.31    3.71
   2  -4 -19   -1.54    2.97
   2  -4 -19   -3.65    2.51
  -2   4 -19   -1.50    2.83
   2  -4  19   -5.38    4.23
  -2  -4 -20   88.76    8.85
   2  -4 -20   87.39    8.55
  -2  -4 -20   93.73    9.95
   2  -4 -20   87.50    9.40
  -2   4 -20   82.86    9.91
  -2  -4  20   90.71    9.76
  -2  -4 -21    1.43    2.79
  -2  -4  21    6.39    4.00
   2  -4 -21    2.28    2.65
  -2  -4 -21    1.73    2.84
  -2   4 -21    3.01    3.13
   2  -4 -21   -0.74    2.88
  -2   4 -22   36.29    7.11
  -2  -4  22   44.03    7.68
  -2  -4 -22   42.09    6.83
   2  -4 -22   32.45    6.24
   2  -4 -22   42.47    6.39
  -2  -4 -22   43.96    7.45
  -2  -4 -23    5.06    3.61
  -2  -4  23    6.27    3.82
   2  -4 -23    3.39    2.41
   2  -4 -23    1.50    2.83
  -2  -4 -23    5.73    4.02
  -2   4 -23    4.25    3.39
  -2   4 -24   16.62    5.42
  -2  -4 -24   13.99    4.02
   2  -4 -24   10.19    3.86
   2  -4 -24    9.81    3.97
  -2  -4  24   14.03    5.17
  -2  -4 -24    9.92    4.83
   2  -4 -24   13.29    4.18
   2  -4 -25   36.00    6.29
  -2  -4  25   36.30    7.21
  -2   4 -25   28.55    6.90
  -2  -4 -25   30.85    6.33
   2  -4 -25   30.37    6.53
  -2  -4 -25   47.48    8.52
   2  -4 -25   26.14    6.14
  -2  -4  26    2.25    3.40
  -2  -4 -26    5.02    3.81
   2  -4 -26   -8.81    4.81
   2  -4 -26    1.33    2.70
  -2   4 -26   -1.84    3.62
  -2  -4 -26    2.98    3.73
   2  -4 -26   -3.00    3.59
   2  -4 -27    7.39    4.19
   2  -4 -27   10.79    4.57
  -2  -4 -27   16.70    5.12
  -2   4 -27   13.52    4.96
  -2  -4 -27   15.91    5.51
  -2  -4  27   10.26    4.72
  -2  -4 -28   21.27    6.62
   2  -4 -28   10.42    4.23
   2  -4 -28   25.92    6.67
  -2  -4 -28   15.08    5.16
  -2  -4  28   33.86    7.58
  -2  -4  29   -1.41    3.66
  -2   5   0 3544.94   33.27
   2   5   0 3635.43   38.78
  -2   5   0 3564.23   41.11
  -2   5   0 3583.38   32.31
  -2  -5   0 3559.69   41.17
  -2  -5   0 3342.90   18.87
   2  -5   0 3569.73   32.09
  -2   5   0 3535.29   33.52
  -2   5  -1   23.86    2.99
   2  -5  -1   28.59    5.17
  -2   5   1   22.20    2.56
  -2  -5  -1   25.24    3.99
   2   5  -1   22.33    3.60
  -2   5  -1   21.69    4.13
  -2   5  -1   28.14    3.73
  -2   5   1   26.00    4.74
  -2  -5  -1   20.62    1.64
   2  -5   1   27.91    3.50
  -2   5   1   28.09    3.19
   2   5  -1   22.00    2.01
   2   5   1   18.26    3.16
  -2   5   1   19.51    2.46
  -2  -5   1   25.98    4.39
   2  -5  -1   24.88    2.83
  -2   5   2  108.04    7.38
   2  -5  -2  101.51    4.79
  -2   5   2   97.25    3.52
   2   5  -2   96.03    4.47
  -2   5   2  103.36    4.84
   2   5  -2   97.70    6.63
  -2  -5   2  103.92    7.26
   2  -5  -2  100.05    7.58
   2   5   2   88.38    6.31
  -2   5   2   94.98    5.41
  -2   5   2   95.92    3.27
  -2   5   2   99.55    5.87
  -2  -5  -2   89.85    3.03
  -2   5  -2   99.97    5.93
  -2   5  -2  102.74    7.45
   2  -5   2   91.70    5.88
   2  -5  -3   89.59    4.26
   2  -5  -3   96.68    7.52
   2  -5   3   91.30    6.14
  -2  -5   3   93.21    7.22
  -2   5   3   91.91    4.18
   2   5  -3   89.97    4.59
   2   5   3   89.46    6.62
  -2  -5  -3   85.49    3.13
  -2   5  -3   97.73    6.45
   2  -5  -3   98.19    5.83
  -2   5   3   85.58    3.01
  -2   5   3   88.79    6.75
   2   5  -3   96.97    4.10
  -2   5   3   89.30    5.39
  -2   5   3   96.75    5.93
   2   5  -3   96.32    6.56
   2   5   3   92.26    5.89
  -2  -5   4   66.31    6.33
   2   5  -4   69.66    6.13
   2  -5  -4   68.82    3.39
   2   5  -4   68.26    4.39
  -2   5   4   70.67    4.79
  -2   5   4   57.68    2.38
   2  -5  -4   74.20    5.35
   2  -5   4   63.95    5.60
   2   5  -4   66.24    3.75
   2   5   4   69.89    6.00
  -2   5   4   60.88    5.49
   2  -5  -4   68.35    4.98
   2   5   4   70.90    5.18
  -2  -5  -4   65.51    6.04
  -2   5  -4   69.88    5.41
  -2   5   4   67.41    5.02
   2  -5  -4   72.37    6.71
   2  -5  -5  348.67    6.85
  -2  -5   5  355.64   13.88
   2  -5  -5  353.86   11.37
   2   5  -5  364.36    9.49
  -2   5   5  357.20   13.60
   2   5   5  374.78   11.88
   2   5  -5  358.74   10.57
   2   5   5  355.62   13.62
  -2  -5  -5  346.94   13.38
   2  -5   5  363.62   13.04
   2  -5  -5  365.41   11.80
   2  -5  -5  350.87   14.25
  -2   5  -5  364.51   11.87
  -2   5   5  362.78   12.11
  -2   5   5  365.77   11.18
  -2   5   5  346.05    6.00
   2   5   6   71.51    6.36
   2  -5  -6   66.93    2.72
  -2  -5  -6   74.97    6.49
   2  -5  -6   76.08    7.12
  -2   5   6   71.99    6.41
   2  -5  -6   74.81    5.56
  -2  -5   6   65.65    6.31
  -2  -5   6   77.11    6.29
  -2   5  -6   76.33    5.53
   2   5   6   70.74    5.40
   2   5  -6   73.03    4.63
  -2   5   6   67.60    2.96
   2  -5   6   73.08    6.32
   2  -5  -7  411.93    6.25
   2  -5  -7  434.78    8.34
  -2  -5   7  448.80   16.15
   2  -5  -7  426.02   13.24
  -2   5   7  453.49   15.74
   2  -5  -7  430.98   16.49
  -2  -5  -7  450.87   15.70
   2   5  -7  438.83   12.07
  -2  -5   7  452.76   14.47
   2  -5   7  433.44   15.71
   2   5   7  445.57   15.94
   2   5   8 1283.86   28.02
  -2   5   8 1305.52   27.65
   2  -5  -8 1212.14   10.42
  -2  -5  -8 1356.48   27.81
  -2  -5   8 1310.36   24.71
   2  -5  -8 1330.44   23.99
   2  -5  -8 1318.19   29.18
  -2  -5  -8 1277.40   23.34
  -2  -5   8 1305.11   28.66
   2  -5  -8 1285.98   16.09
   2   5  -8 1326.32   22.39
   2  -5   8 1357.54   27.90
   2  -5  -9    3.96    0.73
  -2   5   9    3.82    2.42
   2  -5   9   14.14    4.79
  -2  -5   9    8.21    3.20
  -2  -5   9    5.34    2.13
   2   5   9    5.48    3.23
   2  -5  -9    2.76    1.17
   2  -5  -9    4.41    0.78
  -2  -5  -9    5.01    3.00
   2  -5  -9    5.77    2.89
  -2  -5  -9    5.93    2.56
   2  -5  -9    3.06    2.88
   2  -5 -10  242.02   11.12
   2  -5 -10  238.48    5.25
  -2   5  10  237.28   12.52
  -2  -5  10  251.52   10.83
  -2  -5 -10  270.16   12.98
  -2  -5 -10  259.02   11.31
   2  -5 -10  260.67    8.56
   2  -5 -10  249.35   13.26
   2  -5 -10  241.33    5.25
   2   5  10  259.18   13.34
  -2  -5  10  269.07   13.40
   2  -5  10  256.73   13.24
  -2  -5 -11   69.04    6.98
   2  -5 -11   72.02    6.51
  -2  -5  11   69.17    7.21
   2  -5 -11   74.42    5.04
  -2   5  11   79.33    7.53
   2  -5  11   72.05    7.55
   2  -5 -11   62.12    7.04
  -2  -5  11   59.72    5.43
   2   5  11   76.48    7.60
  -2  -5 -11   73.92    6.50
   2  -5 -11   67.93    3.12
   2  -5 -12   -2.07    4.47
  -2  -5  12   11.69    3.69
   2   5  12   10.85    3.64
  -2  -5 -12   11.31    3.04
   2  -5 -12   13.83    1.64
   2  -5  12   14.71    4.57
   2  -5 -12   16.46    2.87
  -2   5  12   18.19    4.11
  -2  -5 -12    9.39    2.86
   2  -5 -12   14.22    3.47
   2  -5  13   66.13    7.95
  -2  -5  13   67.05    7.62
   2  -5 -13   62.86    5.22
  -2  -5 -13   60.45    7.11
   2  -5 -13   62.77    3.54
  -2  -5 -13   65.63    6.48
  -2   5  13   67.62    7.52
   2   5  13   71.47    7.80
   2  -5 -13   73.51    7.11
   2  -5 -13   61.58    7.30
   2   5  14  488.78   20.52
   2  -5 -14  491.55   15.11
  -2  -5 -14  494.73   19.77
   2  -5 -14  510.15   18.56
  -2  -5 -14  494.39   17.46
  -2  -5  14  495.72   20.09
   2  -5 -14  475.04   19.94
  -2   5  14  501.04   20.05
   2  -5  14  523.38   21.04
  -2  -5 -15  138.04    9.93
  -2  -5  15  120.79   10.65
  -2   5  15  119.88   10.43
   2   5  15  130.54   10.97
   2  -5 -15  126.54    9.87
   2  -5  15  136.88   11.77
  -2  -5 -15  156.15   11.66
   2  -5 -15  127.29    8.08
   2  -5 -15  119.49   10.13
  -2  -5 -16   22.46    5.32
  -2   5 -16   23.47    5.55
  -2  -5  16   17.97    4.64
   2  -5 -16   24.30    3.91
  -2  -5 -16   20.09    4.05
  -2   5  16   19.05    4.56
   2   5  16   15.39    3.96
   2  -5  16   22.93    5.20
   2  -5 -16    8.61    3.88
   2  -5 -16   18.68    4.43
   2  -5  17   10.82    4.77
  -2  -5  17    8.01    2.87
  -2  -5 -17   11.17    4.29
  -2  -5 -17   11.07    3.45
   2   5  17   10.15    3.24
   2  -5 -17    9.23    2.83
  -2   5 -17    6.14    3.25
  -2   5  17    8.46    3.26
   2  -5 -17    6.52    2.88
   2  -5 -17    1.19    4.14
  -2   5 -18   83.25    9.56
  -2   5  18   73.38    8.84
  -2  -5 -18   83.28    8.11
   2  -5 -18   72.80    8.09
   2  -5  18   84.80    9.87
   2  -5 -18   77.78    8.87
   2  -5 -18   82.29    7.44
  -2  -5 -18   85.15    9.14
  -2  -5  18   80.13    9.29
  -2  -5 -19   93.65    8.96
  -2   5  19   93.69   10.19
   2  -5 -19   94.31    8.31
   2  -5 -19   97.10   10.15
  -2   5 -19   94.72   10.14
   2  -5 -19   96.14    9.66
  -2  -5  19   91.74    9.91
  -2  -5 -19  103.66   10.36
   2  -5  19   97.25   10.61
   2  -5 -20   40.63    6.86
  -2  -5  20   41.18    6.98
   2  -5  20   35.69    6.96
   2  -5 -20   39.50    5.73
  -2  -5 -20   34.35    6.37
  -2  -5 -20   35.84    5.95
  -2   5 -20   39.19    7.19
   2  -5 -20   34.50    6.18
   2  -5 -21   -1.16    4.29
  -2  -5 -21    7.72    4.38
  -2   5 -21    8.58    4.52
  -2  -5 -21   10.71    4.84
   2  -5  21   -1.16    3.13
  -2  -5  21    5.23    3.83
   2  -5 -21    1.78    2.19
   2  -5 -21    6.88    3.58
   2  -5 -22  115.54   11.46
  -2  -5 -22  122.37   11.05
  -2  -5  22  130.85   12.66
  -2   5 -22  128.76   12.89
   2  -5 -22  119.97   12.02
   2  -5 -22  119.78   10.21
  -2  -5 -22  125.11   12.23
   2  -5 -23    1.03    3.43
  -2  -5 -23    5.84    3.86
   2  -5 -23   -3.94    3.43
  -2  -5  23    1.81    3.26
   2  -5 -23    3.70    2.97
  -2  -5 -23   -1.37    3.01
  -2   5 -23   -1.29    3.16
  -2  -5  24   29.00    6.65
  -2   5 -24   26.93    6.56
  -2  -5 -24   31.40    6.98
   2  -5 -24   28.28    6.45
  -2  -5 -24   32.77    6.26
   2  -5 -24   30.47    6.34
   2  -5 -25   -0.81    3.12
  -2  -5  25    2.25    3.53
   2  -5 -25   -2.83    3.81
  -2  -5 -25    1.87    3.18
  -2   5 -25   -1.26    2.95
  -2  -5 -25    0.51    3.69
  -2  -5 -26   46.53    8.62
   2  -5 -26   37.24    7.34
   2  -5 -26   26.98    6.45
  -2  -5  26   33.73    7.59
  -2   5 -26   42.65    8.54
   2  -5 -27    4.08    4.02
   2  -5 -27    4.83    3.19
  -2  -5  27    5.97    3.60
  -2  -5 -27   10.05    4.95
  -2  -5 -28   54.50    9.65
  -2  -5  28   33.75    7.61
   2  -5 -28   39.79    8.03
   2  -5 -28   40.96    8.22
  -2   6   0  559.10   14.01
  -2   6   0  537.77   17.53
  -2  -6   0  526.90   17.13
   2   6   0  513.77   16.60
  -2   6   0  520.96   13.02
  -2   6   0  512.47   13.34
   2  -6   0  517.13   13.60
   2  -6   1   54.83    4.80
   2  -6  -1   55.42    4.38
  -2   6   1   56.13    4.41
  -2   6   1   48.58    4.04
  -2  -6   1   52.97    5.86
  -2   6   1   61.88    6.45
  -2   6  -1   54.22    4.46
  -2   6  -1   50.72    5.80
   2   6  -1   49.07    2.67
  -2   6  -1   49.64    4.48
   2   6   1   51.62    5.38
   2   6  -1   52.70    5.66
  -2   6   1   50.18    3.97
  -2  -6  -1   59.54    5.94
  -2   6   2   23.77    3.08
  -2   6   2   25.23    2.83
  -2  -6   2   23.54    4.17
  -2   6  -2   21.63    4.30
  -2   6   2   22.91    1.71
  -2  -6  -2   22.31    3.80
  -2   6   2   20.63    2.68
   2   6   2   20.44    3.62
   2   6  -2   28.08    4.49
   2   6  -2   23.72    2.21
  -2   6   2   21.42    2.09
   2  -6   2   20.86    3.26
  -2  -6  -2   21.85    1.56
  -2   6   2   23.25    4.33
   2  -6  -2   21.44    2.69
   2  -6  -2   32.39    5.48
   2  -6   3   31.28    4.04
   2  -6  -3   38.50    3.33
  -2   6   3   36.13    4.89
  -2   6   3   36.28    3.21
   2  -6  -3   43.67    6.08
   2   6  -3   35.10    4.63
   2   6  -3   37.66    3.02
  -2   6   3   34.11    3.47
  -2  -6   3   33.11    4.97
   2   6   3   30.89    4.52
  -2   6  -3   50.35    6.07
  -2   6   3   35.58    2.52
  -2   6   3   33.93    3.59
  -2   6   4  222.19    8.65
   2  -6  -4  216.64    7.07
  -2   6   4  207.00    5.68
   2  -6  -4  211.23   11.81
  -2   6   4  213.44    9.06
  -2   6   4  211.34   11.12
  -2  -6   4  220.40   11.68
   2   6  -4  212.72    7.62
   2   6   4  218.72   11.31
   2   6  -4  211.01    6.21
   2  -6   4  219.16   10.35
   2  -6  -4  209.57    8.94
   2   6  -4  222.71   11.28
  -2  -6   5  158.76   10.14
   2  -6  -5  149.91   10.21
   2   6  -5  162.09    9.64
   2   6  -5  154.34    7.00
   2  -6  -5  155.11    5.66
  -2   6   5  143.85    9.45
   2  -6  -5  149.31    7.79
  -2   6   5  157.03    7.40
   2   6   5  158.81    9.74
  -2   6   5  148.65    4.76
   2  -6  -5  156.18    7.83
   2   6  -5  155.31    5.95
   2  -6   5  153.21    9.13
  -2   6   5  155.81    7.99
   2   6   6    8.39    2.59
   2   6  -6   12.75    2.04
   2  -6   6    8.25    2.69
   2   6  -6   16.14    4.27
  -2  -6   6   10.65    3.46
  -2   6   6   12.72    1.50
  -2  -6  -6    9.93    3.21
   2  -6  -6   13.25    2.77
   2  -6  -6   10.71    1.51
  -2   6   6   14.70    3.41
   2  -6  -6   12.12    3.59
   2   6  -7  185.15    7.72
   2  -6  -7  191.63   11.68
   2   6   7  192.43   11.17
  -2   6   7  182.64    5.73
   2  -6  -7  183.69    5.47
   2  -6   7  174.51   10.53
  -2  -6   7  184.20    9.94
  -2   6   7  188.51   11.18
   2  -6  -7  183.52    8.82
  -2  -6  -7  190.15   10.81
  -2  -6   7  182.77   11.29
  -2  -6  -8   11.69    3.67
   2  -6   8    4.82    2.79
   2   6   8    2.67    2.25
   2  -6  -8    6.26    1.11
  -2  -6   8   10.12    3.22
   2  -6  -8    3.76    1.91
   2  -6  -8   10.83    3.83
   2   6  -8    6.59    1.82
  -2  -6   8    7.33    3.56
  -2   6   8    5.91    1.27
  -2   6   8    6.91    2.91
  -2   6   9   13.85    3.85
  -2  -6   9   16.44    3.39
   2   6   9   11.66    3.08
   2  -6  -9   13.02    3.89
  -2  -6   9   12.90    3.81
  -2  -6  -9   13.71    3.58
   2  -6  -9   12.00    1.44
   2  -6   9   14.29    3.57
   2  -6  -9    9.95    2.67
   2  -6  -9   13.74    2.17
   2  -6  10   51.88    6.98
   2  -6 -10   49.66    2.68
   2  -6 -10   54.85    5.92
  -2  -6  10   49.22    6.80
   2  -6 -10   46.16    6.90
  -2  -6  10   52.66    5.55
  -2   6  10   48.07    6.06
   2  -6 -10   52.30    4.00
  -2  -6 -10   56.63    6.68
   2   6  10   61.18    7.19
  -2  -6  11  504.70   20.15
  -2  -6  11  465.78   15.72
  -2   6  11  447.54   18.70
  -2  -6 -11  459.56   15.50
   2  -6 -11  469.93   16.20
   2  -6 -11  446.78    8.20
  -2  -6 -11  462.46   18.49
   2  -6 -11  470.45   12.40
   2   6  11  499.62   19.80
   2  -6 -11  443.30    8.18
   2  -6 -11  465.74   19.77
   2  -6  11  492.75   19.32
  -2  -6  12  112.29    9.85
   2  -6 -12   96.68    4.02
  -2  -6 -12  106.16    7.78
   2  -6 -12  104.82    8.17
  -2  -6 -12  109.97    9.37
   2   6  12  112.86    9.91
   2  -6  12  113.83   10.06
  -2   6  12  119.29   10.00
   2  -6 -12   96.75    3.74
   2  -6 -12  101.43    6.09
  -2  -6  12  108.73    7.63
   2  -6 -12  104.73    9.67
   2  -6 -12   99.99    4.10
   2  -6 -13   81.57    8.80
  -2  -6  13   94.12    9.40
   2  -6 -13   87.66    4.17
  -2   6  13   98.95    9.51
  -2  -6 -13   75.36    8.08
   2  -6 -13   92.36    8.08
  -2  -6  13   84.87    6.58
  -2  -6 -13   91.87    7.36
   2   6  13   87.19    8.83
   2  -6  13   94.54    9.58
   2  -6 -13   78.32    5.73
  -2  -6  14  252.52   15.00
  -2  -6 -14  245.92   14.18
   2   6  14  241.43   15.05
   2  -6  14  237.67   14.89
   2  -6 -14  236.57   12.87
   2  -6 -14  245.38   15.02
   2  -6 -14  239.05   10.47
  -2  -6 -14  240.04   12.25
  -2   6  14  262.64   15.29
  -2   6  15   90.00    9.53
   2  -6 -15   91.77    8.51
  -2  -6  15   93.43   10.01
  -2  -6 -15   99.38    8.31
   2   6  15   94.99   10.16
   2  -6  15  103.61   10.48
   2  -6 -15   94.70    7.01
  -2  -6 -15   88.53    9.05
   2  -6 -15   94.21    9.98
  -2   6  16  119.46   11.16
   2  -6 -16  112.47    9.90
   2   6  16  124.56   11.59
  -2  -6  16  132.99   11.89
   2  -6 -16  128.40    8.53
  -2  -6 -16  130.92   11.05
   2  -6 -16  129.27   11.54
  -2  -6 -16  140.23    9.85
   2  -6  16  137.03   12.07
   2  -6  17    5.78    3.79
  -2  -6  17    3.99    3.76
   2   6  17   -0.20    2.61
  -2   6  17   -1.45    3.50
   2  -6 -17    1.47    2.39
  -2  -6 -17    0.50    2.66
   2  -6 -17    3.42    2.15
  -2  -6 -17   -1.94    3.82
   2  -6 -17   -3.89    4.50
   2  -6 -18   49.76    7.57
  -2  -6  18   59.14    8.35
   2  -6  18   52.29    7.81
   2  -6 -18   51.19    6.92
  -2  -6 -18   51.22    7.34
  -2   6 -18   51.14    7.81
   2  -6 -18   51.82    5.86
  -2   6  18   51.68    7.63
   2   6  18   54.34    8.21
  -2  -6 -18   56.92    6.82
  -2  -6  19   13.29    4.89
  -2  -6 -19    8.11    3.42
   2  -6 -19   15.19    4.63
   2  -6 -19   10.03    3.76
  -2  -6 -19   14.34    4.00
  -2   6 -19   13.71    4.60
   2  -6 -19   10.82    3.09
   2   6  19    6.98    3.10
   2  -6  19    1.75    3.84
  -2   6  19    4.94    2.66
   2  -6 -20   -4.14    3.11
  -2   6  20    0.39    3.15
  -2  -6 -20   -1.06    2.49
  -2  -6  20   -1.62    3.65
   2  -6  20   -7.02    4.47
   2  -6 -20    0.92    2.09
  -2  -6 -20   -2.62    3.58
  -2   6 -20   -1.50    3.98
   2  -6 -20   -4.52    4.13
   2  -6 -21    8.24    3.92
  -2  -6 -21    9.68    3.75
   2  -6 -21    4.87    4.00
  -2  -6  21    3.08    3.22
  -2   6 -21    4.64    3.91
  -2  -6 -21    5.55    3.73
  -2   6  21    6.05    3.89
   2  -6  21    6.58    4.02
  -2  -6 -22   47.59    6.99
  -2  -6  22   49.62    8.51
   2  -6 -22   41.21    7.33
  -2  -6 -22   49.75    8.01
  -2   6 -22   45.12    8.32
   2  -6 -22   41.24    7.64
   2  -6  22   45.93    8.35
   2  -6 -23   14.19    4.92
  -2  -6 -23   13.79    5.16
   2  -6  23   15.57    5.94
  -2  -6  23   13.63    5.24
  -2   6 -23   15.15    4.93
   2  -6 -23    6.33    3.69
  -2  -6 -24   85.15   11.09
  -2  -6  24   77.07   10.58
   2  -6 -24   76.38    9.81
  -2   6 -24   79.71   10.95
   2  -6 -24   81.91   11.00
   2  -6 -25    2.27    3.71
   2  -6 -25    5.05    3.75
  -2  -6 -25   13.07    5.62
  -2   6 -25    3.72    4.42
  -2  -6  25   12.15    5.70
  -2  -6  26   28.31    7.23
   2  -6 -26   12.82    4.80
   2  -6 -26   11.92    4.28
  -2  -6 -26   35.73    8.00
   2  -6 -27    4.40    4.45
  -2  -6 -27    8.42    5.21
   2  -6 -27   -3.90    3.47
   2  -6 -28    6.76    5.28
   2  -6 -28    8.21    4.08
  -2  -6 -28   16.09    6.14
  -2   7   0    2.75    3.56
  -2  -7   0    3.29    3.05
   2   7   0   -2.04    2.93
  -2   7   0   -0.18    1.25
   2  -7   0    2.06    2.30
  -2   7   0   -4.35    2.65
  -2   7  -1  745.91   16.77
   2  -7   1  761.05   18.64
   2   7  -1  789.08   21.90
  -2   7   1  745.71   16.01
  -2   7  -1  730.48   22.58
  -2  -7  -1  766.79   21.95
  -2   7   1  742.14   22.58
  -2   7   1  757.02   16.29
   2  -7  -1  766.32   17.39
  -2   7  -1  743.17   16.15
  -2  -7   1  779.56   22.39
   2   7   1  746.22   21.69
   2  -7  -2  247.26    9.57
   2   7  -2  249.05   12.57
   2  -7   2  247.93   11.05
  -2  -7   2  259.52   13.07
  -2   7  -2  237.29   13.14
  -2   7   2  227.76   12.68
  -2  -7  -2  247.66   12.35
  -2   7   2  242.09    9.32
   2   7   2  234.90   12.31
  -2   7   2  244.25    9.11
  -2   7   2  245.75    7.79
  -2   7  -2  232.08    9.24
   2   7  -2  232.81    6.21
  -2   7   2  235.09    9.25
  -2   7   3  690.19   15.97
  -2  -7   3  727.56   21.92
  -2   7  -3  697.18   22.11
   2   7  -3  689.32   20.77
   2   7   3  668.25   20.92
  -2   7   3  684.19   21.70
  -2   7   3  664.94   14.94
   2   7  -3  658.73   11.95
   2  -7   3  659.47   18.86
   2  -7  -3  680.46   14.99
  -2   7   3  681.85   12.57
  -2  -7  -3  704.44   20.56
  -2   7   4   79.42    7.55
  -2   7  -4   92.96    8.66
   2   7  -4   84.72    7.63
  -2  -7  -4   85.85    7.57
   2  -7  -4   90.86    5.35
   2   7  -4   87.33    4.96
  -2   7   4   79.97    5.30
   2   7   4   93.08    8.26
  -2   7   4   92.21    4.46
  -2   7   4   83.02    5.76
  -2  -7   4   94.30    8.36
   2   7  -4   87.79    3.57
   2  -7   4   96.13    7.63
  -2   7  -5  202.72   12.59
  -2  -7   5  195.76   11.90
   2   7  -5  184.57   11.25
  -2   7   5  185.60   11.38
   2   7  -5  176.96    7.51
   2  -7  -5  217.62   13.25
  -2   7   5  181.44    8.05
   2  -7  -5  182.67    7.23
   2   7   5  219.30   12.25
   2   7  -5  180.91    5.98
  -2   7   5  180.54    6.13
   2  -7   5  185.43   10.88
   2  -7  -6  223.81    7.56
  -2  -7   6  242.01   13.46
   2   7  -6  233.12   12.48
   2  -7  -6  267.27   14.63
   2   7  -6  230.14    7.56
   2   7   6  225.49   12.89
   2  -7   6  222.72   11.97
  -2   7   6  223.22    6.73
  -2   7   6  242.78   13.36
   2   7  -7  726.44   22.71
  -2  -7   7  757.73   23.99
  -2  -7  -7  759.25   22.32
   2  -7  -7  736.00   17.50
  -2   7   7  745.72   23.49
   2   7  -7  709.64   14.54
  -2   7   7  722.61   12.44
   2  -7  -7  738.21   13.07
   2  -7  -7  756.32   24.54
   2   7   7  767.75   23.70
   2  -7   7  714.99   22.04
  -2   7   8   94.40    8.64
  -2  -7   8  102.71    9.40
   2  -7  -8  127.64   10.96
  -2  -7   8  110.88    8.32
   2  -7  -8  104.84    7.04
   2   7   8  102.23    9.10
   2   7  -8   97.73    5.95
  -2   7   8   96.46    4.77
   2  -7  -8  102.02    4.67
  -2  -7  -8  101.84    8.59
   2  -7   8  106.03    8.91
  -2  -7   9   84.94    8.75
   2  -7  -9   71.46    3.78
   2  -7  -9   85.23    9.22
  -2  -7   9   80.60    7.24
   2  -7  -9   72.07    6.04
  -2  -7  -9   76.03    7.80
  -2   7   9   73.92    4.40
   2   7  -9   72.37    5.45
   2   7   9   70.21    7.68
   2  -7   9   82.17    8.20
  -2   7   9   65.86    7.32
   2  -7 -10   59.58    8.64
  -2  -7  10   53.27    7.93
  -2  -7  10   56.88    6.38
  -2   7  10   54.80    7.21
   2  -7  10   47.11    7.50
   2  -7 -10   47.12    3.10
  -2  -7 -10   54.11    7.32
   2  -7 -10   46.02    5.22
   2   7  10   54.07    7.79
   2   7  11 1746.28   39.04
   2  -7 -11 1744.23   17.87
  -2  -7 -11 1809.89   36.81
  -2   7  11 1783.97   38.98
  -2  -7  11 1853.76   39.58
   2  -7 -11 1760.78   31.04
   2  -7 -11 1852.67   40.31
   2  -7 -11 1754.18   23.94
  -2  -7  11 1769.81   32.70
   2  -7  11 1845.54   38.76
  -2  -7  12  284.11   16.57
   2  -7 -12  303.51   17.11
  -2  -7 -12  296.18   15.62
   2  -7 -12  292.26   13.22
  -2   7  12  298.82   16.37
   2  -7 -12  287.26   10.42
   2  -7 -12  277.15    7.18
  -2  -7  12  286.31   12.97
   2   7  12  297.19   16.82
   2  -7  12  312.55   16.76
  -2  -7  13  115.98   10.89
  -2   7  13  130.04   11.20
  -2  -7 -13  124.37   10.57
   2  -7 -13  116.41   11.14
  -2  -7  13  109.89    8.04
   2  -7 -13  118.23    8.81
   2  -7  13  108.27   10.24
   2  -7 -13  115.03    7.00
   2   7  13  114.08   10.75
   2   7  14   62.10    8.15
  -2  -7  14   68.82    9.01
   2  -7 -14   66.36    6.91
   2  -7 -14   72.97    9.27
   2  -7  14   58.95    8.04
  -2  -7 -14   60.24    7.79
   2  -7 -14   64.50    5.49
  -2  -7  14   55.53    5.69
  -2   7  14   70.29    8.68
  -2  -7 -14   64.75    6.48
  -2  -7  15   -2.73    3.01
   2  -7 -15    1.59    3.96
  -2   7  15    1.92    3.04
   2  -7 -15    3.41    2.92
   2   7  15   -1.63    3.03
  -2  -7 -15    0.99    2.18
   2  -7  15    2.66    3.92
  -2  -7 -15    4.79    3.62
   2  -7 -15    1.92    2.05
  -2  -7  16   99.66   10.63
   2   7  16  131.95   12.16
   2  -7 -16  118.98    9.91
   2  -7 -16  122.06    8.13
  -2  -7 -16  116.28    8.90
   2  -7 -16  125.25   11.80
  -2   7  16  118.30   11.29
  -2  -7 -16  109.55   10.39
   2  -7  16  125.11   11.93
   2   7  17  139.04   12.81
   2  -7 -17  146.93   11.08
  -2  -7 -17  157.94   10.62
   2  -7  17  142.45   12.94
   2  -7 -17  152.33   13.16
  -2  -7  17  143.37   12.65
  -2  -7 -17  150.59   12.39
  -2   7  17  149.59   13.19
  -2   7  18   41.08    7.52
   2  -7 -18   33.58    5.73
   2   7  18   31.58    6.67
  -2  -7  18   33.87    6.98
  -2  -7 -18   43.74    6.14
  -2  -7 -18   46.02    7.72
   2  -7  18   34.69    7.31
   2  -7 -18   52.83    8.44
   2   7  19   41.44    7.63
   2  -7 -19   43.64    6.71
   2  -7 -19   42.55    7.52
  -2  -7  19   52.45    8.59
  -2   7  19   36.56    6.93
   2  -7  19   37.50    7.59
  -2  -7 -19   53.95    8.05
  -2  -7 -19   45.73    6.41
  -2  -7  20    7.59    4.23
  -2  -7 -20   -0.14    3.56
   2   7  20    4.17    2.77
   2  -7 -20    5.72    3.24
  -2   7  20   11.05    4.72
   2  -7  20    7.24    4.56
   2  -7 -20    7.65    3.94
  -2   7 -20   12.23    4.94
  -2   7 -21   77.00   10.22
   2  -7 -21   68.10    9.69
  -2  -7  21   70.90    9.92
  -2   7  21   81.25   10.64
   2  -7  21   81.59   11.04
   2  -7 -21   76.09    9.14
  -2  -7 -21   68.68    9.34
   2  -7 -22   -0.59    2.54
  -2  -7  22    0.03    3.59
  -2  -7 -22    3.94    4.11
   2  -7 -22   -2.37    3.38
  -2   7  22    2.05    3.42
  -2   7 -22   -1.16    3.75
   2  -7  22   -1.89    3.91
  -2  -7  23    1.75    3.79
  -2  -7 -23   -3.86    4.14
   2  -7 -23   -1.88    3.08
   2  -7  23    3.46    4.90
   2  -7 -23    4.11    4.55
  -2   7 -23   -7.48    4.96
  -2  -7  24    4.62    4.23
   2  -7 -24   -0.57    3.06
  -2  -7 -24   -0.17    3.55
   2  -7 -24   -1.06    2.80
  -2   7 -24    2.49    3.49
   2  -7  24   -9.09    4.89
  -2  -7  25   75.22   11.19
   2  -7 -25   62.78    9.62
  -2  -7 -25   60.11    9.45
   2  -7 -26    9.63    5.22
  -2  -7 -26   -6.92    4.92
  -2  -7 -27   -1.91    4.27
   2  -7 -27    6.92    4.81
  -2   8   0   19.10    2.81
   2  -8   0   16.35    3.36
  -2  -8   0   13.87    3.65
   2   8   0   17.72    4.18
  -2   8   0   16.26    4.48
  -2   8   0   16.54    2.66
   2  -8   1    9.43    2.94
   2   8  -1   10.03    3.50
  -2  -8  -1   14.08    3.81
   2  -8  -1   13.35    2.95
  -2   8   1   11.24    2.35
   2   8   1   13.38    3.76
  -2   8   1   13.97    4.50
  -2   8  -1   11.11    2.64
  -2   8   1   14.72    2.46
  -2   8  -1   20.58    5.55
  -2   8   1    9.14    1.91
  -2   8  -1    8.07    1.79
  -2  -8   1   10.36    3.49
  -2   8   2   26.48    2.98
  -2   8   2   25.64    3.18
   2   8   2   25.17    4.49
   2  -8   2   24.13    3.94
   2  -8  -2   24.61    3.52
   2   8  -2   26.49    5.24
  -2  -8  -2   22.31    4.37
  -2   8  -2   21.67    4.79
  -2   8   2   22.08    4.45
   2   8  -2   24.81    1.85
  -2   8   2   22.97    3.01
  -2  -8   2   22.25    4.46
  -2   8  -2   27.19    3.37
   2  -8  -3  104.68    6.59
  -2   8   3   99.88    9.29
  -2  -8   3  108.16    9.23
  -2   8  -3   97.87    9.35
   2   8  -3  114.30    9.67
  -2  -8  -3  110.04    8.96
  -2   8   3  105.50    5.59
   2   8   3   92.83    8.54
  -2   8   3   99.74    5.90
   2   8  -3  110.58    4.70
  -2   8  -3  111.98    6.70
   2  -8   3  104.11    8.14
  -2   8   3  106.89    6.42
   2  -8  -4  224.34    9.27
  -2  -8   4  222.16   13.27
  -2   8  -4  231.48   14.19
   2  -8   4  232.84   12.13
  -2   8   4  228.97    7.93
  -2   8   4  226.99    8.95
  -2  -8  -4  241.11   12.89
   2   8  -4  220.81    7.53
   2   8   4  237.96   13.69
   2   8  -4  237.13   13.19
  -2   8   4  236.73   13.96
   2  -8   5  163.42   10.55
   2   8  -5  176.81   11.73
   2   8  -5  157.75    4.62
  -2  -8  -5  153.09    4.77
  -2   8   5  161.46   11.69
   2   8   5  185.69   12.19
   2   8  -5  164.04    7.18
  -2   8   5  165.29    6.55
  -2   8  -5  179.14   12.67
  -2  -8   5  164.44   11.63
  -2  -8  -5  173.16   11.22
   2  -8  -5  165.31    7.67
  -2  -8   6   -2.95    3.95
   2  -8   6   -1.45    2.76
   2  -8  -6    0.63    1.32
   2   8  -6    4.06    3.25
  -2  -8  -6    2.01    2.99
   2   8  -6    0.94    0.80
   2   8  -6    1.33    1.47
   2   8   6   -1.51    3.30
  -2   8   6   -0.52    2.86
  -2   8  -6    8.45    5.21
  -2   8   6    1.25    0.95
  -2   8   7   60.61    7.37
   2  -8  -7   82.75    9.55
   2  -8  -7   61.40    4.38
   2   8  -7   61.10    4.06
  -2   8   7   61.07    3.99
  -2  -8   7   64.37    7.96
   2   8  -7   67.11    7.65
   2   8   7   52.62    6.96
   2  -8   7   55.88    6.91
   2  -8   8    1.20    3.15
   2  -8  -8    1.15    1.18
  -2  -8   8    0.97    3.34
   2  -8  -8    6.71    5.45
  -2   8   8   -2.77    3.80
  -2  -8  -8    1.02    0.53
   2   8  -8    1.53    1.30
   2  -8  -8    4.33    2.62
   2   8   8   -1.03    3.20
   2   8  -8    8.70    4.50
   2   8  -9   79.39    8.87
   2  -8  -9   80.31    4.59
   2  -8  -9   91.73   10.49
  -2  -8  -9   73.35    3.64
  -2  -8  -9   75.11    7.87
  -2  -8   9   73.90    8.72
   2  -8  -9   74.50    6.20
  -2   8   9   76.55    8.49
   2   8   9   85.79    9.13
  -2  -8   9   79.77    7.92
   2  -8   9   82.28    8.55
   2  -8  10   67.70    8.07
   2  -8 -10   68.00    4.11
  -2  -8  10   65.33    8.51
   2  -8 -10   72.24    9.52
  -2   8  10   64.11    8.14
   2   8  10   67.03    8.12
  -2  -8  10   71.50    7.40
   2  -8 -10   69.10    6.16
  -2  -8 -10   67.21    8.05
   2   8  11   -1.46    3.98
  -2  -8  11    2.19    3.82
  -2  -8  11    0.96    2.52
   2  -8  11    1.03    2.99
  -2  -8 -11    6.23    4.04
   2  -8 -11    1.39    4.36
   2  -8 -11    1.27    2.37
  -2   8  11   -4.14    3.63
  -2  -8  12   31.05    6.28
   2  -8 -12   20.92    5.92
   2   8  12   29.40    5.87
   2  -8 -12   17.37    3.30
   2  -8  12   13.41    4.49
  -2  -8  12   23.59    4.24
  -2   8  12   19.40    4.73
  -2  -8 -12   24.36    5.52
   2  -8  13   -0.30    3.31
  -2  -8  13    1.96    3.31
  -2   8  13   -3.14    4.24
   2  -8 -13    5.24    4.40
   2   8  13    2.99    2.95
  -2  -8  13    1.56    1.74
   2  -8 -13    3.08    2.17
  -2  -8 -13    1.33    2.74
   2  -8  14   34.48    7.01
   2  -8 -14   48.58    8.76
  -2   8  14   37.08    6.75
  -2  -8 -14   43.21    6.87
  -2  -8  14   39.79    5.26
  -2  -8  14   45.19    7.93
   2  -8 -14   31.46    4.78
   2   8  14   43.84    7.31
  -2  -8  15  212.80   11.57
   2  -8 -15  216.18   12.51
  -2  -8  15  219.76   15.60
  -2  -8 -15  221.74   14.85
   2   8  15  201.61   15.31
  -2   8  15  216.29   15.75
   2  -8 -15  223.33   16.19
   2  -8  15  226.87   15.99
   2  -8 -16   10.08    5.44
  -2  -8  16   -0.18    3.86
  -2   8  16    0.21    2.88
   2   8  16    0.67    2.66
  -2  -8 -16    1.60    3.44
   2  -8 -16    4.55    2.86
   2  -8  16   -1.19    3.76
  -2  -8  17   70.95    9.80
   2   8  17   82.89   10.47
   2  -8  17   70.86    9.71
   2  -8 -17   64.61    7.50
   2  -8 -17   74.54    9.90
  -2   8  17   74.96    9.90
  -2  -8 -17   71.33    8.89
  -2  -8 -18   26.95    6.37
  -2  -8  18   24.77    6.58
   2  -8 -18   20.35    6.08
  -2   8  18   19.05    5.71
   2   8  18   26.27    6.53
   2  -8 -18   18.81    4.82
   2  -8  18   16.89    5.58
   2  -8 -19   62.95    9.48
  -2  -8  19   63.09    9.43
  -2  -8 -19   66.42    9.26
  -2   8  19   69.55    9.91
   2  -8 -19   62.38    7.93
   2   8  19   57.82    9.27
   2  -8  19   60.64    9.75
   2  -8 -20    7.05    4.94
   2  -8  20    9.94    5.29
  -2  -8  20    1.05    3.96
  -2   8  20    4.23    4.60
  -2  -8 -20   -0.60    3.20
   2   8  20    3.63    5.06
   2  -8  21   92.44   11.65
  -2   8  21  100.77   12.06
   2  -8 -21   90.04   11.28
   2   8  21   96.00   12.19
  -2  -8 -21  102.04   11.38
  -2   8 -21   84.00   11.00
  -2  -8  21   97.67   12.15
  -2  -8 -22   -1.37    3.19
  -2   8  22    2.18    3.20
   2   8  22    7.91    5.03
   2  -8 -22    7.91    4.41
   2  -8  22   -4.43    4.19
  -2  -8  22   10.67    5.53
  -2   8 -22   -0.43    3.80
  -2  -8  23    7.29    5.12
  -2   8  23   11.81    4.85
   2  -8 -23   19.43    6.77
   2  -8  23   13.37    5.40
  -2  -8 -23   16.57    5.20
  -2   8 -23   17.71    6.25
  -2  -8  24   12.47    5.75
  -2  -8 -24   18.69    6.23
   2  -8 -24   17.69    6.36
   2  -8 -25  111.94   13.47
  -2  -8 -25  110.50   12.79
  -2  -8 -26   27.59    7.27
   2  -9   0   32.80    4.74
  -2  -9   0   33.27    5.49
  -2   9   0   31.80    3.55
  -2   9   0   35.82    6.54
  -2   9   0   36.57    3.62
   2   9   0   25.87    4.87
   2  -9   1  149.58    9.61
   2  -9  -1  158.71    9.29
  -2  -9   1  154.87   11.11
  -2  -9  -1  166.61   11.72
  -2   9  -1  154.88   12.18
   2   9  -1  166.83   11.82
   2   9   1  153.20   11.45
  -2   9   1  147.30    7.35
  -2   9  -1  165.25    7.60
  -2   9   1  160.97    7.63
  -2   9   1  169.94   12.48
  -2   9   2   15.32    2.46
   2  -9  -2   17.06    3.50
  -2  -9   2   20.42    4.54
  -2  -9  -2   18.96    4.26
  -2   9  -2   21.66    5.47
   2   9  -2   23.06    5.16
  -2   9  -2   13.07    2.06
  -2   9   2   14.36    2.34
   2   9   2   12.88    3.82
  -2   9   2    8.40    4.01
   2  -9   2   14.42    3.77
   2   9  -3  358.74   17.52
  -2  -9   3  343.55   17.27
   2   9   3  358.49   17.66
   2   9  -3  313.04    6.86
  -2   9   3  337.73   10.79
  -2  -9  -3  364.30   16.60
   2  -9  -3  351.44   13.04
  -2   9  -3  354.82   11.56
   2  -9   3  340.08   15.16
  -2   9   3  355.82   17.97
  -2   9  -3  340.78   17.86
   2  -9  -4  113.83    7.39
  -2   9  -4  108.95   10.40
  -2  -9  -4  119.60    9.79
   2   9  -4  128.83   10.87
  -2   9   4  112.57   10.30
   2   9   4  122.66   10.35
   2   9  -4  120.31    5.26
  -2   9   4  116.34    6.36
  -2  -9   4  115.48   10.25
  -2   9  -4  121.48    7.13
   2  -9   4  120.34    9.36
  -2   9   5    3.50    3.19
   2  -9  -5    7.72    2.23
  -2   9  -5   10.72    5.29
  -2  -9   5    8.05    4.04
   2  -9   5    9.51    3.99
  -2  -9  -5   10.86    4.34
   2   9  -5   11.45    2.06
   2   9  -5   -1.65    4.80
   2   9   5   10.50    3.69
  -2   9   6  248.02   15.40
  -2  -9   6  241.32   15.09
   2   9  -6  245.06   15.04
   2   9  -6  242.93    9.19
  -2  -9  -6  267.61   14.64
   2  -9  -6  236.26    9.68
  -2   9  -6  256.05   16.14
   2  -9   6  250.00   14.31
   2   9   6  242.54   15.00
   2   9   7  937.85   29.66
  -2  -9   7  980.61   30.15
  -2   9  -7 1037.16   31.62
   2   9  -7  931.64   29.16
   2   9  -7  941.86   19.57
  -2   9   7  996.61   30.51
   2  -9   7  943.27   28.05
  -2  -9  -7  943.28   26.88
   2  -9  -7  958.91   18.76
   2   9   8  484.69   21.64
   2  -9  -8  477.01   12.81
  -2  -9   8  457.86   21.39
  -2   9  -8  533.92   23.22
   2   9  -8  499.86   21.44
  -2  -9  -8  454.51   18.96
  -2   9   8  481.52   21.76
   2  -9   8  478.97   20.58
   2   9   9   27.83    6.03
   2  -9   9   32.71    6.40
  -2  -9   9   34.55    6.46
   2   9  -9   30.73    6.54
  -2   9   9   27.54    6.12
   2   9 -10  298.07   17.40
  -2  -9  10  315.49   18.10
   2  -9  10  300.59   16.86
  -2  -9  10  315.30   15.47
   2  -9 -10  304.62   12.36
   2   9  10  301.39   17.66
  -2   9  10  309.35   17.99
  -2  -9  11   65.30    7.20
   2   9 -11   70.01    8.96
   2   9  11   48.28    7.36
   2  -9 -11   83.46   10.23
   2  -9 -11   62.05    6.03
  -2  -9  11   56.03    7.68
   2  -9  11   52.13    7.83
  -2   9  11   57.20    8.07
  -2  -9  12   -2.40    2.43
  -2  -9  12   -5.81    4.96
   2   9  12   -5.59    4.15
   2  -9 -12    2.60    2.32
  -2  -9 -12   -0.08    3.17
   2  -9 -12    5.77    5.24
  -2   9  12   -5.33    4.45
   2  -9  12   -3.52    3.73
   2   9  13  108.01   11.28
  -2  -9  13  127.28   12.24
   2  -9 -13  126.54   12.80
  -2  -9 -13  119.26   10.79
   2  -9  13  105.44   10.90
  -2   9  13  120.50   11.75
  -2  -9  13  116.98    9.47
  -2  -9  14   33.05    6.94
  -2   9  14   24.47    5.65
   2  -9 -14   44.67    8.42
   2   9  14   29.71    6.57
  -2  -9 -14   38.08    6.64
   2  -9  14   35.42    7.04
  -2  -9  14   34.96    5.27
  -2  -9  15  113.34   11.93
  -2  -9 -15   96.99   10.30
  -2   9  15   98.22   10.95
   2  -9  15   94.43   10.76
   2  -9 -15  101.97   11.91
   2   9  15   93.86   11.08
  -2  -9  16   47.25    8.28
  -2   9  16   44.09    8.20
   2   9  16   39.32    7.49
   2  -9 -16   54.02    9.34
  -2  -9 -16   46.55    7.26
   2  -9  16   45.16    7.89
  -2  -9  17  198.50   16.33
  -2  -9 -17  171.76   13.92
   2  -9 -17  198.26   16.45
  -2   9  17  165.75   15.04
   2  -9  17  178.95   15.47
   2   9  17  168.23   15.40
   2  -9  18   10.39    5.08
  -2  -9  18   22.85    6.79
   2  -9 -18   19.02    6.64
  -2   9  18   11.67    5.21
   2   9  18   13.75    5.22
  -2  -9 -18   15.94    5.35
   2  -9  19   16.78    5.79
  -2  -9  19   17.26    6.36
   2   9  19   16.85    5.42
   2  -9 -19   21.56    7.00
  -2  -9 -19   19.81    5.48
  -2   9  19   20.63    6.06
   2  -9  20   -4.93    3.95
  -2  -9  20   -3.28    4.76
   2  -9 -20    4.49    4.31
  -2   9  20   -1.41    2.94
   2   9  20    3.42    4.16
  -2  -9 -20   -1.66    2.85
   2  -9  21   35.67    8.52
  -2  -9  21   22.22    6.12
   2  -9 -21   32.02    7.99
  -2   9  21   36.84    7.68
   2   9  21   37.67    8.18
  -2  -9 -21   32.26    6.95
  -2  -9  22   46.99    9.15
  -2   9  22   52.67    9.42
   2   9  22   57.53   10.07
   2  -9  22   39.88    8.76
  -2   9 -22   51.82    9.39
  -2  -9 -22   39.60    7.69
   2  -9 -22   58.30   10.21
   2  -9 -23   23.25    7.62
  -2  -9 -23   14.47    5.60
   2 -10   0   66.09    6.84
  -2  10   0   66.73    4.74
  -2  10   0   67.71    8.78
  -2 -10   0   55.84    7.28
   2  10   0   64.05    8.31
   2  10  -1    2.11    3.25
   2 -10  -1    6.37    2.44
  -2 -10   1    3.36    2.98
  -2 -10  -1    2.40    2.88
  -2  10  -1    4.97    1.60
   2  10   1    4.08    3.33
  -2  10   1    5.67    1.43
  -2  10  -1   12.30    4.95
  -2  10   1    4.09    3.03
   2 -10   1    8.65    3.41
  -2  10  -2    0.52    1.32
   2 -10   2   -1.36    2.51
   2 -10  -2   -2.20    2.68
  -2 -10   2   -4.23    3.99
  -2 -10  -2   -2.25    3.64
  -2  10  -2    2.15    4.67
   2  10  -2   -3.47    3.93
  -2  10   2   -0.39    2.82
   2  10   2   -5.47    4.08
  -2 -10  -3    1.55    3.54
   2 -10   3    1.59    2.67
   2 -10  -3    4.37    2.36
  -2 -10   3    0.92    3.44
   2  10  -3    6.79    3.69
  -2  10  -3   13.06    4.80
   2  10   3    1.08    3.57
  -2  10   3   -1.01    3.43
  -2  10  -3    0.05    1.98
   2 -10   4   59.60    7.01
  -2 -10  -4   55.04    7.07
  -2  10   4   62.45    8.14
   2 -10  -4   57.99    5.69
  -2  10  -4   54.36    7.82
   2  10   4   64.33    8.47
  -2  10  -4   61.43    4.95
  -2 -10   4   59.81    7.64
   2  10  -4   59.04    8.26
   2 -10   5   16.49    4.19
   2 -10  -5   18.10    3.28
  -2 -10   5   21.21    5.06
  -2 -10  -5   14.89    4.17
  -2  10  -5   14.63    4.70
   2  10   5   19.11    4.57
   2  10  -5   29.77    6.38
  -2  10   5    7.99    3.47
   2 -10  -6   89.08    6.52
  -2 -10   6   90.57   10.06
   2  10   6   86.82    9.74
   2  10  -6   82.78    9.67
  -2 -10  -6   82.37    8.71
  -2  10   6   92.79   10.29
   2 -10   6   90.97    9.13
  -2  10  -6  101.21   10.92
   2 -10   7    3.17    3.68
  -2 -10   7   -1.79    3.67
  -2  10  -7    5.11    4.96
  -2 -10  -7    1.53    2.95
   2  10   7    0.42    2.92
  -2  10   7   10.13    5.09
   2  10   8   14.67    4.81
   2 -10   8   17.47    4.79
  -2 -10   8   14.82    5.20
   2  10  -8   12.13    5.09
  -2 -10  -8   19.66    5.05
  -2  10  -8   23.11    6.49
  -2  10   8   20.95    5.90
   2  10   9    2.07    3.28
   2  10  -9    0.65    2.95
   2 -10   9    7.13    3.82
  -2 -10   9    2.92    3.48
  -2 -10  -9    7.38    3.60
  -2  10  -9    4.71    5.01
  -2  10   9    4.36    3.66
   2  10 -10   -1.36    3.62
   2 -10  10    2.71    3.40
  -2 -10  10    4.78    3.29
  -2  10 -10    3.45    4.67
  -2 -10 -10   -0.01    2.36
  -2  10  10   -1.25    3.14
   2  10  10    0.90    3.04
  -2 -10  10   -0.84    3.85
  -2  10  11   58.45    8.38
   2 -10  11   69.71    8.96
  -2 -10  11   62.04    7.55
   2  10 -11   60.42    8.62
  -2 -10  11   60.96    8.82
  -2 -10 -11   68.92    8.38
   2  10  11   64.46    9.12
   2 -10  12   46.70    7.67
  -2  10  12   46.24    7.92
  -2 -10  12   45.96    7.67
   2  10  12   38.99    7.50
   2  10 -12   47.87    8.00
  -2 -10  12   57.06    7.10
  -2 -10 -12   45.30    6.60
   2 -10  13    3.12    3.74
  -2  10  13    7.74    3.81
  -2 -10  13    3.75    3.00
  -2 -10  13    2.25    3.39
   2  10  13    1.23    3.08
   2  10 -13    4.98    4.32
   2 -10  14   27.42    6.55
   2  10  14   17.28    5.07
  -2  10  14   26.49    6.37
  -2 -10  14   21.42    6.07
  -2 -10  15   30.75    6.98
  -2  10  15   23.59    5.78
   2  10  15   28.78    6.60
   2 -10  15   38.53    7.63
  -2 -10 -15   30.31    5.84
   2 -10  16   22.00    6.23
  -2 -10  16   18.47    6.13
  -2  10  16    9.78    3.99
   2  10  16   13.11    5.56
  -2 -10 -16   15.98    4.76
   2 -10  17    1.52    3.30
  -2 -10  17    4.01    4.28
  -2  10  17   -0.97    3.20
   2  10  17   -1.56    3.16
  -2 -10 -17   -1.69    2.85
   2 -10  18   35.76    8.28
  -2 -10  18   29.64    7.35
   2  10  18   32.91    7.34
  -2 -10 -18   38.41    7.06
  -2  10  18   35.21    7.87
   2 -10  19   16.43    5.92
  -2 -10 -19   18.72    5.51
   2  10  19   24.09    6.83
  -2  10  19   19.79    5.83
  -2 -10  19   13.95    5.86
   2 -10  20    5.09    3.74
  -2 -10  20    7.04    4.98
  -2 -10 -20    6.93    4.29
   2 -10 -20    9.49    4.95
   2  10  20    5.20    4.20
  -2  10  20    2.13    3.94
   2 -10 -21   20.47    6.84
   2 -11   0  237.26   13.30
  -2  11   0  233.93   16.54
  -2 -11   0  232.29   15.29
   2  11   0  215.10   15.26
   2 -11  -1   14.83    3.74
  -2 -11   1   15.25    4.86
  -2 -11  -1   20.16    5.52
   2  11  -1   12.17    4.37
   2  11   1    2.98    3.56
   2 -11   1   16.58    4.35
  -2  11   1   13.11    4.81
  -2  11  -1   12.98    5.36
   2 -11  -2    4.52    2.51
   2  11   2   -4.81    4.38
   2 -11   2    2.82    2.43
  -2 -11   2    2.69    3.17
   2  11  -2   -7.46    4.47
  -2  11   2   -3.01    4.27
  -2  11  -2    4.41    3.98
  -2 -11  -2   -2.30    4.03
  -2 -11  -3    3.08    3.01
   2 -11   3    5.70    3.77
  -2 -11   3    7.81    4.56
   2  11  -3    3.12    3.30
  -2  11  -3   15.45    6.28
   2  11   3    0.60    3.21
  -2  11   3    2.08    3.35
   2 -11  -3    6.66    2.91
  -2 -11   4  440.93   22.02
  -2 -11  -4  461.34   20.86
   2  11  -4  467.31   22.45
  -2  11   4  453.16   22.95
   2  11   4  459.41   22.56
   2 -11  -4  446.51   16.55
  -2  11  -4  471.29   23.34
   2 -11   4  434.11   19.86
   2 -11   5   15.32    4.76
   2  11  -5   11.51    5.55
  -2  11   5   10.02    4.88
  -2 -11  -5   15.77    4.81
   2  11   5   12.20    4.75
  -2 -11   5    8.64    4.08
  -2  11  -5   12.58    5.01
  -2 -11   6   92.68   10.17
  -2  11  -6   87.52   10.86
  -2 -11  -6   98.35    9.99
   2  11  -6  103.15   11.51
  -2  11   6   92.39   11.31
   2  11   6   99.51   11.06
   2 -11   6  110.20   10.49
  -2 -11  -7  173.57   13.07
   2  11  -7  173.19   14.21
  -2  11  -7  178.09   15.13
  -2  11   7  178.81   14.79
  -2 -11   7  173.74   14.34
   2  11   7  183.29   14.85
   2 -11   7  181.26   13.54
   2  11   8    8.40    4.29
   2 -11   8    4.30    3.69
  -2  11  -8    9.41    4.93
  -2 -11  -8    9.00    3.96
   2  11  -8    4.09    3.67
  -2  11   8    8.19    4.55
  -2 -11   8    7.28    4.36
   2  11   9   38.43    7.33
   2 -11   9   49.77    7.86
  -2 -11   9   24.99    6.04
  -2 -11  -9   39.63    6.36
   2  11  -9   40.50    7.55
  -2  11  -9   42.46    7.89
  -2  11   9   32.77    7.20
  -2 -11 -10  202.26   14.08
  -2 -11  10  216.38   16.31
  -2  11  10  202.57   16.29
  -2  11 -10  225.38   17.37
   2  11 -10  217.48   16.34
   2 -11  10  203.82   15.26
   2  11  10  204.49   16.16
  -2  11  11    7.20    5.10
   2  11  11    3.85    3.70
  -2  11 -11    8.43    5.84
   2  11 -11    5.86    4.61
  -2 -11 -11    1.70    2.98
   2 -11  11    0.37    3.12
  -2 -11  11    4.77    4.47
  -2 -11  11    0.49    2.70
   2 -11  12   35.35    7.05
  -2  11  12   40.70    7.63
  -2 -11  12   41.40    7.62
   2  11  12   42.35    8.04
  -2  11 -12   44.87    8.64
   2  11 -12   42.84    8.04
  -2 -11 -12   43.09    6.57
  -2 -11  12   37.73    6.31
   2 -11  13   25.53    6.37
  -2 -11 -13   22.98    5.15
  -2  11 -13   37.96    8.36
  -2 -11  13   23.42    6.26
   2  11  13   24.08    6.45
   2  11 -13   29.64    7.11
  -2  11  13   22.61    6.20
  -2 -11  14   77.78   10.68
   2  11 -14   76.17   10.55
   2  11  14   68.21   10.27
  -2  11  14   67.69    9.96
  -2 -11 -14   78.07    8.80
   2 -11  14   69.60    9.88
  -2 -11  15    9.71    4.91
  -2  11  15    4.60    3.97
   2  11 -15   15.47    5.83
   2  11  15    6.73    3.68
   2 -11  15    7.74    4.19
   2 -11  16   24.36    6.65
  -2 -11  16   28.03    7.17
   2  11 -16   35.97    7.90
  -2  11  16   20.93    5.83
   2  11  16   12.91    5.05
  -2 -11  17    1.55    3.07
   2  11 -17   11.90    6.05
   2  11  17    1.08    3.55
  -2  11  17    0.66    2.64
   2 -11  17   -2.57    4.20
  -2  11  18   21.39    6.18
   2  11  18   28.00    7.22
   2 -11  18   16.91    5.82
  -2 -11  18   20.77    6.46
   2 -12   0   45.89    6.44
  -2 -12   0   39.73    7.25
   2  12   0   36.78    6.84
  -2  12   0   40.99    7.80
  -2  12   1   13.99    4.97
   2 -12  -1   15.30    4.02
  -2 -12   1   22.95    5.26
  -2 -12  -1   24.66    5.94
   2  12  -1   19.12    5.27
  -2  12  -1   16.65    5.44
   2 -12   1   21.38    4.72
   2  12   1    7.48    3.80
   2 -12  -2   16.57    4.12
  -2 -12   2   14.15    4.71
  -2 -12  -2   17.61    5.49
  -2  12   2   15.90    5.46
   2  12   2    6.41    3.49
   2  12  -2    5.55    3.94
   2 -12   2   14.23    4.33
  -2  12  -2   11.25    5.38
   2 -12   3   14.31    4.13
  -2 -12   3   19.92    5.75
  -2 -12  -3   27.46    6.11
  -2  12  -3   20.34    6.14
   2  12  -3   19.72    5.70
   2  12   3   19.80    5.67
  -2  12   3   14.57    5.28
  -2 -12   4    8.16    4.03
  -2 -12  -4    7.73    3.50
  -2  12   4    6.97    3.27
  -2  12  -4    8.60    5.03
   2  12  -4    8.13    4.68
   2  12   4    8.71    4.36
   2 -12   4   11.16    4.24
  -2 -12  -5   12.58    4.38
   2 -12   5    7.42    3.99
  -2  12  -5   15.92    5.92
  -2 -12   5    4.88    3.72
   2  12   5   12.59    5.15
   2  12  -5    3.83    3.34
  -2  12   5    6.73    4.48
   2 -12   6    2.00    2.80
  -2 -12   6   -0.74    3.80
  -2  12  -6   -0.93    3.35
  -2 -12  -6   -0.52    2.67
   2  12   6    0.61    2.79
   2  12  -6    6.91    4.86
  -2  12   6    0.51    2.86
   2 -12   7    0.74    2.68
  -2  12   7    3.82    3.64
  -2 -12   7    5.80    4.01
  -2 -12  -7    6.46    3.53
  -2  12  -7   -1.63    3.39
   2  12  -7    4.08    4.41
   2  12   7    2.04    3.06
   2 -12   8    7.70    4.14
  -2 -12   8   10.26    4.49
  -2 -12  -8    9.17    4.03
  -2  12  -8    4.32    4.49
   2  12  -8    6.17    4.40
   2  12   8    4.91    3.98
  -2  12   8    5.71    3.68
   2  12   9   10.89    4.56
   2 -12   9   13.94    4.68
  -2 -12   9   11.95    5.09
  -2 -12  -9   19.85    5.17
  -2  12  -9   21.32    6.73
   2  12  -9   10.39    4.35
  -2  12   9   11.58    5.29
   2 -12  10   -1.15    3.73
  -2 -12  10    2.34    3.61
  -2  12 -10    1.06    3.35
  -2 -12 -10   -0.34    2.61
   2  12 -10    0.32    3.39
   2  12  10    4.02    4.28
  -2  12  10   -0.51    2.65
   2  12  11   19.38    6.12
  -2 -12 -11   16.74    4.59
  -2  12 -11   18.85    6.36
  -2  12  11   14.80    4.84
  -2 -12  11   15.26    5.41
   2 -12  11   13.20    4.92
   2  12 -11    7.51    4.39
   2 -12  12    4.49    3.68
  -2  12  12    0.63    3.06
  -2 -12  12    8.12    3.95
   2  12  12    1.55    2.88
  -2  12 -12    5.92    4.50
  -2 -12 -12    5.23    3.22
   2  12 -12    5.64    3.96
   2 -12  13   -1.39    3.45
  -2  12  13    2.13    2.74
  -2 -12  13    3.04    4.31
  -2  12 -13    0.99    4.44
   2  12 -13    4.25    4.38
   2  12  13    1.05    2.80
  -2  12  14    2.49    3.15
   2  12  14    4.85    3.46
  -2  12 -14    8.81    5.22
   2  12 -14    3.37    3.26
  -2 -12  14   12.02    5.53
   2 -12  14    4.83    4.05
   2 -12  15    7.48    4.20
  -2 -12  15    9.49    5.23
  -2  12  15    9.90    5.15
   2  12  15    7.30    4.29
   2  12 -15    8.38    4.70
  -2  12 -15   13.65    5.70
   2  12 -16    9.00    4.91
   2  12  16    6.64    4.60
  -2  12  16    3.28    3.38
   2 -12  16    1.67    4.02
   2  12 -17   14.94    6.27
   2  12 -18   13.01    5.92
  -2  13   0  144.72   14.59
   2  13   0  145.67   14.29
  -2 -13   0  146.24   13.62
   2 -13   1   47.41    7.03
  -2 -13   1   51.02    8.63
  -2 -13  -1   47.52    8.10
   2  13   1   49.20    8.45
  -2  13  -1   49.92    8.86
  -2  13   1   47.77    8.70
   2  13  -1   47.03    8.31
   2 -13   2    2.92    2.65
  -2 -13   2    6.78    4.11
  -2 -13  -2    6.84    3.41
  -2  13  -2    2.09    3.21
  -2  13   2   -3.30    5.25
   2  13  -2    2.65    3.68
   2  13   2    6.30    4.43
  -2  13   3    1.15    3.07
   2 -13   3    8.03    3.74
   2  13  -3    3.41    3.89
  -2 -13   3   11.34    4.96
  -2 -13  -3   14.18    4.66
  -2  13  -3    4.68    4.05
   2  13   3    8.49    4.32
   2 -13   4   24.61    5.61
   2  13   4   27.52    6.59
  -2  13   4   16.28    4.90
   2  13  -4   18.02    5.77
  -2 -13  -4   26.14    6.22
  -2 -13   4   17.39    5.34
  -2  13  -4   25.79    6.80
   2 -13   5    5.46    3.32
  -2 -13   5    3.20    3.13
  -2 -13  -5    3.04    3.31
   2  13  -5    7.53    4.13
  -2  13  -5    5.78    4.49
  -2  13   5    2.98    4.06
   2  13   5   -1.61    2.86
  -2  13  -6   18.45    5.84
  -2 -13   6   15.59    5.39
  -2 -13  -6   19.67    4.97
   2  13   6   20.84    6.32
   2 -13   6   20.93    5.77
   2  13  -6   16.44    5.68
  -2  13   6   15.69    5.33
  -2 -13   7   86.61   11.10
  -2 -13  -7   77.00    9.38
  -2  13   7   81.91   11.42
   2  13  -7   73.58   10.43
   2 -13   7   76.29    9.84
  -2  13  -7   80.68   11.59
   2  13   7   80.89   11.10
   2 -13   8    2.68    3.68
  -2  13  -8    6.50    4.45
  -2 -13  -8   -2.01    3.22
   2  13   8   -1.08    3.26
   2  13  -8    5.42    3.77
  -2 -13   8    1.87    3.12
  -2  13   8    6.70    4.59
  -2  13   9   33.49    7.34
  -2 -13  -9   31.45    6.42
  -2  13  -9   30.53    7.58
   2  13  -9   22.02    6.49
   2  13   9   22.92    6.15
  -2 -13   9   21.04    6.19
   2 -13   9   27.04    6.34
   2 -13  10   14.52    5.25
   2  13  10   15.30    5.58
  -2 -13  10   20.42    6.92
  -2  13 -10   16.08    5.73
   2  13 -10   24.53    6.56
  -2  13  10   15.98    5.70
   2 -13  11   38.06    7.57
   2  13  11   32.35    7.66
  -2 -13  11   36.62    7.90
  -2  13 -11   37.78    8.27
   2  13 -11   36.26    7.91
  -2  13  11   35.17    7.88
  -2  13 -12   26.36    7.42
  -2 -13  12   23.73    7.37
   2  13  12   14.66    5.71
   2 -13  12   15.77    5.51
   2  13 -12   15.45    6.02
  -2  13  12   11.52    4.87
   2 -13  13   -2.70    4.43
   2  13 -13    4.64    3.87
   2 -13  14    0.71    3.63
   2  13 -14   -2.34    4.31
   2  13 -15   18.80    6.18
   2  14   0   51.38    9.31
  -2  14   0   44.77    8.76
  -2 -14   0   36.96    7.50
  -2  14   1   -4.52    5.12
   2  14   1    0.09    3.46
  -2 -14   1    5.38    4.29
  -2 -14  -1    3.70    3.94
   2  14  -1   -4.83    4.58
  -2  14  -1    0.36    3.91
  -2 -14  -2    1.43    3.70
   2  14  -2    3.80    4.34
  -2 -14   2    1.27    2.87
  -2  14  -2    1.50    4.13
  -2  14   2   -6.44    5.38
   2  14   2    1.48    3.26
  -2  14  -3   24.77    6.74
  -2 -14   3   17.26    5.63
  -2 -14  -3   21.61    5.77
   2  14  -3   19.02    5.68
   2  14   3   20.95    5.94
  -2  14   3   18.63    6.10
   2 -14   4    7.73    4.31
  -2  14   4   13.46    5.43
   2  14  -4   10.75    5.09
   2  14   4   18.23    5.96
  -2 -14  -4    7.90    4.19
  -2  14  -4   12.43    5.58
  -2 -14   4    6.24    4.88
   2 -14   5   -2.18    2.65
  -2 -14   5    3.09    4.13
  -2  14   5    4.33    4.94
  -2 -14  -5    9.98    4.92
  -2  14  -5    7.85    5.31
   2  14   5    1.96    3.36
   2  14  -5    3.47    3.37
  -2 -14   6    2.33    3.10
   2 -14   6    0.10    2.94
  -2  14  -6    7.67    4.99
  -2 -14  -6    2.57    3.77
   2  14  -6   -1.55    3.71
  -2  14   6    3.57    3.56
   2  14   6    1.62    3.10
   2  14  -7   21.88    6.82
  -2 -14   7   10.73    4.98
  -2  14   7   13.21    5.50
  -2 -14  -7   15.25    4.95
   2 -14   7    8.19    3.81
   2  14   7   14.26    5.38
   2  14   8   14.77    5.59
   2 -14   8    7.47    4.60
  -2 -14   8    8.87    4.79
   2  14  -8    6.07    4.01
   2 -14   9   -1.77    2.86
  -2 -14   9    1.08    3.66
   2  14  -9    0.35    2.84
   2 -14  10   -0.48    3.14
   2  14 -10    0.41    3.66
   2 -14  11   -1.60    2.95
   2 -14  12    1.92    3.65
  -2 -15   0   26.16    6.85
  -2 -15   1    2.41    3.20
  -2 -15  -1    6.41    4.03
  -2 -15   2    2.35    3.69
  -2 -15  -2    0.52    3.13
  -2 -15   3   26.23    6.71
  -2 -15  -3   28.65    6.81
  -2 -15   4   38.44    8.17
  -2 -15  -4   41.37    8.17
   2 -15   7   24.75    6.77
   2 -15   8   60.06    9.50
   2 -15   9   10.94    4.84
   3   0   0    2.79    1.62
   3   0   0    2.94    1.46
   3   0   0    2.81    1.55
  -3   0   0    3.55    1.68
  -3   0   0    8.14    2.43
  -3   0  -1    3.37    1.93
  -3   0  -1    2.07    1.97
  -3   0  -1   -0.49    2.06
   3   0   1    3.02    1.48
   3   0  -1   -0.50    1.22
   3   0  -1   -0.52    1.39
  -3   0   1   -1.02    1.57
  -3   0   1    0.22    2.33
   3   0   1    1.15    1.58
   3   0   1    1.46    1.26
   3   0  -1    1.46    1.24
   3   0  -1    7.82    3.37
   3   0   2  714.48   15.64
  -3   0  -2  683.86   14.27
   3   0   2  724.13   14.54
   3   0  -2  730.68   15.81
  -3   0   2  721.12   15.63
   3   0  -2  724.35   15.68
   3   0  -2  709.95   13.11
  -3   0   2  716.30   15.65
   3   0   2  709.64   14.88
   3   0  -2  724.84   16.13
  -3   0  -2  699.19   15.52
  -3   0  -3   -1.60    2.02
   3   0   3    2.56    1.33
   3   0   3    0.68    1.21
   3   0   3    0.36    1.27
   3   0  -3    0.66    2.54
  -3   0   3    2.35    1.64
  -3   0  -3    1.40    2.25
   3   0  -3    0.57    1.30
  -3   0  -3   -2.18    2.27
  -3   0   3   -5.35    3.10
  -3   0   4   83.96    4.69
   3   0  -4   81.72    3.06
  -3   0   4   82.40    6.46
  -3   0   4   81.45    5.71
   3   0  -4   70.44    5.21
  -3   0  -4   73.64    5.30
  -3   0  -4   76.48    5.76
   3   0   4   80.35    5.59
   3   0   4   81.01    5.28
   3   0  -4   78.32    5.54
   3   0   4   82.37    5.05
  -3   0  -4   78.61    4.82
  -3   0   5    0.07    2.75
   3   0   5    1.89    1.39
  -3   0   5    4.34    1.81
  -3   0  -5    1.34    2.07
   3   0  -5    8.53    1.43
  -3   0  -5    2.14    1.96
  -3   0  -5   -0.42    1.41
   3   0  -5    7.37    2.26
  -3   0   6   46.51    3.57
  -3   0  -6   42.73    4.59
   3   0  -6   45.82    3.00
   3   0  -6   67.06    6.07
  -3   0  -6   51.46    3.87
  -3   0  -6   42.04    4.49
  -3   0   6   44.75    4.76
  -3   0   7   -1.96    2.62
  -3   0  -7    0.21    1.17
  -3   0   7    0.71    1.07
   3   0  -7    0.95    0.83
  -3   0  -7   -3.47    2.94
   3   0  -7    0.23    2.17
  -3   0  -7   -1.18    2.57
  -3   0  -8    8.08    2.01
  -3   0   8    7.24    1.86
   3   0  -8    8.10    1.75
   3   0  -8    7.21    2.49
  -3   0  -8    4.00    3.04
   3   0  -8    7.46    1.53
  -3   0  -8    2.96    2.67
  -3   0   9    0.21    1.34
   3   0  -9   -0.85    1.29
   3   0  -9   -0.82    1.19
   3   0  -9    0.76    2.62
  -3   0  -9    1.58    2.25
  -3   0  -9    1.15    1.64
  -3   0  10  118.43    6.36
  -3   0 -10  118.29    5.86
   3   0 -10  116.57    6.19
   3   0 -10  126.89    8.54
  -3   0 -10  105.10    7.89
   3   0 -10  112.28    6.41
  -3   0  11   -2.05    1.89
   3   0 -11    0.32    1.14
   3   0 -11   -1.48    2.94
  -3   0 -11    2.12    1.64
  -3   0 -11    0.40    2.91
  -3   0 -12   16.02    2.51
  -3   0  12   13.29    2.75
   3   0 -12   15.23    2.65
   3   0 -12   12.90    3.45
  -3   0 -12    9.47    2.85
  -3   0  13    1.10    1.98
  -3   0 -13    3.14    1.71
  -3   0 -13   -3.17    3.22
   3   0 -13   -0.48    2.75
  -3   0 -14    1.82    1.68
  -3   0  14    3.77    2.03
   3   0 -14    0.04    2.78
  -3   0 -14    0.15    2.89
  -3   0  15   -0.88    2.02
  -3   0 -15   -2.53    4.08
  -3   0 -15   -1.08    1.39
  -3   0  16   -3.14    3.30
  -3   0 -16   -3.08    4.35
  -3   0 -16    1.90    1.42
  -3   0  17    0.87    2.04
  -3   0 -17    0.42    4.04
  -3   0 -17    1.10    1.43
  -3   0 -18  500.14   11.68
  -3   0 -18  488.07   21.46
  -3   0  18  497.37   17.48
  -3   0  19    2.99    3.01
  -3   0 -19    5.02    4.97
  -3   0  20    1.06    2.03
  -3   0 -20   -5.43    4.73
  -3   0 -21   -3.20    3.95
  -3   0  21    1.86    2.31
  -3   0  22   -0.29    2.20
  -3   0 -22   -0.60    3.65
  -3   0 -23   -6.97    4.75
   3   0 -23   -1.42    2.84
  -3   0  23    3.07    2.74
  -3   0 -24   -3.07    3.50
   3   0 -24    4.08    3.42
  -3   0 -25   -1.60    4.58
   3   0 -25   -1.52    3.54
  -3   0 -26   17.59    5.66
   3   0 -26   10.36    4.61
   3   0 -26   10.30    4.51
  -3   0 -27    5.64    4.54
   3   0 -27    0.10    3.69
   3   0 -27   -1.61    4.02
   3   0 -28    2.81    3.58
   3   0 -29   -5.19    3.99
   3   0 -30   14.28    5.50
   3   1   0   -0.45    1.44
   3   1   0    1.27    1.92
  -3  -1   0    0.18    0.48
   3  -1   0   -0.49    1.40
  -3  -1   0    0.77    1.78
  -3  -1   0   -1.03    2.37
  -3  -1   0    1.36    1.38
  -3  -1   0   -0.21    2.22
  -3   1   0    0.98    1.17
  -3   1   0    2.61    1.86
  -3   1   0    2.46    2.48
   3  -1   0    1.95    1.02
  -3   1   0   -1.40    1.92
   3   1   0   -0.50    1.51
  -3   1  -1  893.83   16.59
  -3   1   1  874.78   10.14
   3   1   1  903.53   17.07
  -3  -1  -1  889.22   16.91
  -3   1  -1  879.06   14.34
   3   1  -1  929.52   18.35
  -3  -1   1  912.98   17.04
  -3   1   1  926.72   17.83
   3  -1   1  895.92   14.35
  -3   1   1  888.17   13.01
   3   1  -1  884.49   16.39
  -3  -1  -1  898.95   17.81
   3   1   1  901.81   17.72
  -3  -1  -1  864.82   10.28
  -3   1   1  876.96   17.84
  -3  -1   1  861.48   16.73
   3   1   1  917.15   17.78
   3  -1  -1  870.34   13.03
  -3  -1   1  898.83   18.03
   3   1  -1  907.05   16.90
   3  -1   1  902.01   16.73
   3  -1  -1  911.25   16.04
  -3  -1  -1  901.41   16.83
  -3   1  -2 1582.95   22.82
   3  -1  -2 1545.57   23.62
   3  -1   2 1592.64   20.40
   3   1  -2 1587.52   21.98
   3  -1  -2 1618.97   21.16
   3   1   2 1629.26   24.14
  -3  -1  -2 1588.29   23.40
  -3   1   2 1595.41   13.67
  -3  -1  -2 1590.62   23.97
  -3  -1  -2 1614.08   23.50
  -3  -1   2 1621.32   22.77
  -3   1   2 1625.25   24.15
   3   1  -2 1573.07   22.82
   3   1   2 1626.66   23.28
   3  -1  -2 1589.43   23.99
  -3  -1   2 1564.09   22.71
   3  -1  -2 1602.12   17.23
   3   1  -2 1642.83   24.55
  -3   1  -2 1566.30   19.98
   3  -1   2 1589.98   21.92
   3   1  -2 1607.97   22.96
  -3  -1  -2 1596.27   16.17
  -3   1   2 1595.96   24.20
   3  -1   2 1617.70   23.18
   3   1   3 3671.96   37.02
  -3   1  -3 3546.54   31.84
  -3  -1   3 3543.79   34.72
   3  -1  -3 3539.89   25.55
  -3  -1  -3 3541.06   35.71
  -3   1  -3 3522.18   35.23
   3  -1  -3 3578.14   21.67
   3  -1   3 3580.03   32.13
  -3  -1   3 3692.03   35.19
  -3   1   3 3674.56   36.50
   3   1  -3 3725.51   37.39
   3   1  -3 3541.35   35.17
   3  -1  -3 3561.44   36.39
   3   1  -3 3701.55   35.49
  -3   1   3 3539.23   21.66
   3   1   3 3618.84   35.68
   3  -1   3 3613.68   32.06
  -3  -1  -3 3580.46   34.73
  -3   1   3 3625.26   37.01
  -3  -1  -3 3553.43   27.07
  -3  -1  -3 3547.47   36.52
   3  -1  -3 3614.77   36.87
   3  -1  -4   22.64    3.25
  -3   1   4   21.95    4.03
   3   1   4   19.65    2.90
  -3  -1   4   24.07    3.59
  -3  -1  -4   20.45    3.56
   3  -1   4   21.25    2.66
   3  -1  -4   31.92    2.26
  -3  -1   4   18.35    2.71
   3   1  -4   18.18    2.99
  -3  -1   4   14.35    2.45
  -3   1   4   18.49    3.05
  -3   1  -4   16.74    2.81
  -3  -1  -4   22.39    3.96
   3  -1   4   18.99    2.78
  -3   1  -4   19.39    3.40
   3   1  -4   22.23    3.23
  -3  -1  -4   17.14    3.14
   3  -1  -4   31.01    3.31
  -3   1   4   19.70    2.03
   3   1   4   20.11    3.05
  -3  -1  -4   20.18    2.48
   3   1  -4   15.05    2.54
  -3   1   5  525.83   10.02
   3   1  -5  527.86   14.22
  -3  -1   5  509.58   12.47
  -3   1   5  516.52    9.26
  -3  -1   5  522.60   14.38
  -3  -1  -5  531.49   14.77
   3  -1  -5  544.88   10.18
   3   1  -5  522.62   14.34
   3  -1  -5  514.59   14.47
  -3   1   5  544.86   15.13
  -3   1  -5  511.29   14.66
   3  -1   5  553.12   13.99
  -3   1  -5  507.87   13.59
  -3  -1   5  514.37   14.08
  -3  -1  -5  533.68   13.33
   3  -1   5  505.80   11.58
   3   1  -5  541.82   14.78
  -3  -1  -5  516.63   14.93
  -3  -1  -5  523.60   12.39
  -3   1  -6 2109.02   30.66
   3  -1   6 2122.59   23.14
  -3   1   6 2140.56   22.19
  -3   1  -6 2118.99   29.06
  -3   1   6 2123.73   19.09
  -3  -1   6 2155.05   26.02
   3   1  -6 2136.12   30.12
   3  -1  -6 2151.69   30.75
   3  -1  -6 2135.11   22.00
  -3  -1  -6 2126.64   30.95
   3  -1   6 2207.24   29.24
  -3  -1  -6 2161.15   26.59
  -3  -1  -6 2109.63   30.53
  -3   1   6 2168.03   31.12
  -3  -1   6 2140.61   29.76
  -3  -1  -6 2187.31   27.01
  -3  -1  -7  310.47   10.84
  -3  -1   7  309.25   10.18
  -3   1   7  294.31    9.00
   3   1   7  298.27    6.79
   3   1  -7  312.96   10.10
   3   1  -7  315.41   12.11
   3  -1  -7  305.05   12.19
  -3   1   7  303.05   12.05
  -3   1   7  303.24    7.51
  -3   1  -7  309.83   11.71
  -3  -1  -7  306.16   10.15
  -3  -1  -7  304.49   11.97
  -3  -1   7  294.93   11.49
   3  -1  -7  308.94    9.12
  -3  -1  -7  311.21   12.26
   3  -1  -8  882.45   16.42
  -3  -1   8  845.26   17.34
   3   1  -8  879.99   17.46
  -3  -1  -8  860.04   20.80
   3   1  -8  854.39   20.58
   3  -1  -8  835.48   20.57
  -3  -1  -8  845.78   20.86
  -3   1  -8  837.43   20.08
   3   1   8  811.96   11.17
  -3   1   8  852.19   13.19
  -3   1   9  360.41    9.17
  -3  -1   9  354.67   11.52
  -3   1  -9  369.40   14.06
   3   1  -9  377.75   11.06
   3   1  -9  357.09   11.56
   3  -1  -9  345.32    8.92
   3  -1  -9  365.94   14.05
  -3  -1  -9  374.08   14.28
   3   1  -9  369.21   14.18
   3  -1  -9  361.03   11.21
  -3  -1  -9  362.53   14.27
  -3   1  10  853.83   14.85
  -3  -1  10  822.42   18.19
  -3   1 -10  838.13   21.50
   3   1 -10  871.58   17.88
   3   1 -10  857.43   22.13
   3  -1 -10  849.85   22.19
  -3  -1 -10  856.93   22.06
  -3  -1 -10  846.54   22.23
   3  -1 -10  863.46   18.33
   3  -1 -10  843.47   14.60
  -3   1  11    6.76    1.61
   3  -1 -11   10.18    1.87
   3  -1 -11    8.21    3.42
   3   1 -11    5.47    3.27
  -3  -1  11    9.45    2.57
  -3  -1 -11   17.37    5.72
  -3   1 -11    9.48    4.51
  -3  -1 -11   18.72    4.88
  -3  -1  12 1535.11   26.68
  -3  -1 -12 1566.43   31.90
   3  -1 -12 1530.55   21.87
   3   1 -12 1560.61   31.96
   3  -1 -12 1541.94   31.64
  -3   1 -12 1552.13   31.27
  -3   1  12 1503.25   21.98
   3  -1 -13  327.40   10.77
  -3  -1  13  355.42   13.28
   3   1 -13  360.49   16.63
   3  -1 -13  355.61   15.99
  -3  -1 -13  370.18   16.20
  -3   1 -13  370.79   16.62
  -3   1  13  336.99   10.99
  -3   1  14   15.96    2.84
  -3  -1  14   15.52    3.28
  -3  -1 -14   13.23    4.42
  -3   1 -14   28.13    6.06
   3  -1 -14   18.09    2.79
   3  -1 -14   12.50    4.33
  -3  -1 -15  175.93   12.42
   3  -1 -15  157.31   11.69
  -3   1 -15  158.06   11.93
  -3   1  15  142.91    7.96
  -3  -1  15  140.87    9.14
  -3   1 -16  771.33    9.92
   3  -1 -16  859.90   26.70
  -3  -1 -16  857.19   27.31
  -3   1  16  852.43   19.90
  -3   1 -16  886.57   27.32
  -3  -1  16  855.43   22.84
  -3   1 -17  150.62    4.81
  -3  -1 -17  171.19   13.09
   3  -1 -17  155.28   12.71
  -3   1 -17  179.59   13.48
  -3   1  17  168.05    9.50
  -3  -1  17  160.14   10.47
  -3  -1  18    6.38    2.86
   3  -1 -18   -0.15    3.43
  -3  -1 -18    4.28    3.93
  -3   1 -18    0.75    3.18
  -3   1  18    3.44    2.09
  -3  -1  19   21.73    4.50
   3  -1 -19   13.76    4.55
  -3   1 -19   16.58    5.43
  -3  -1 -19    9.18    4.64
  -3   1  19   22.39    4.03
   3  -1 -20  293.17   17.49
  -3   1 -20  283.17   17.46
  -3  -1 -20  297.66   17.71
   3  -1 -20  298.13   15.92
  -3  -1  20  301.30   15.25
  -3  -1  21   26.24    5.36
  -3   1 -21   39.16    7.94
   3  -1 -21   31.33    6.93
  -3  -1 -21   29.73    7.02
   3  -1 -21   26.15    5.74
   3  -1 -22  103.07   11.44
   3  -1 -22  112.02   10.57
  -3   1 -22  114.57   12.42
  -3  -1 -22  107.87   11.80
  -3  -1  22  110.31    9.95
  -3  -1  23  197.49   13.78
  -3  -1 -23  190.45   15.73
  -3   1 -23  225.26   17.31
   3  -1 -23  195.66   15.60
   3  -1 -23  206.73   14.85
  -3  -1  24   55.17    7.73
   3  -1 -24   41.18    7.58
  -3   1 -24   49.50    9.02
  -3  -1 -24   52.29    8.96
   3  -1 -24   58.07    8.35
   3  -1 -25    1.99    3.50
  -3  -1 -25   -3.25    3.52
   3  -1 -25    5.62    3.78
  -3   1 -25    5.45    4.22
   3   1 -25    0.34    3.07
  -3  -1  25    2.55    2.55
   3  -1 -26   89.24   11.57
  -3   1 -26   84.91   11.38
   3   1 -26   93.39   11.16
   3  -1 -26   89.10   10.57
  -3  -1 -26   97.17   12.04
   3  -1 -27   30.58    7.01
  -3   1 -27   38.90    8.44
  -3  -1 -27   46.19    9.03
   3  -1 -27   35.81    7.39
   3   1 -27   35.50    7.19
   3   1 -28   20.58    6.53
   3  -1 -28   18.55    6.11
   3   1 -29    0.59    3.40
   3  -1 -29    5.62    4.10
   3  -1 -30   28.44    7.02
  -3   2   0    1.17    0.87
  -3  -2   0    0.26    2.23
  -3  -2   0   -1.06    1.49
   3  -2   0    1.14    0.82
  -3   2   0    2.37    1.49
  -3  -2   0    1.10    0.92
  -3   2   0   -0.89    1.47
  -3   2   0    1.49    1.56
   3  -2   0   -1.16    1.35
   3   2   0    1.10    1.24
  -3   2   0    2.38    2.58
  -3  -2   0    5.36    2.60
   3   2   0   -0.28    0.91
   3   2   1    0.82    1.19
  -3  -2  -1    3.72    2.54
  -3  -2   1    1.81    1.86
  -3   2  -1    0.49    1.70
   3   2  -1    1.09    1.52
   3   2   1    0.68    1.02
  -3  -2  -1   -1.77    2.77
  -3   2   1    9.10    2.17
  -3  -2   1    1.06    2.24
  -3   2   1    1.28    1.23
  -3  -2  -1    0.63    0.88
   3  -2  -1    2.35    1.10
  -3   2   1    3.32    1.07
   3   2   1    2.50    1.78
  -3  -2   1    1.80    1.42
  -3   2  -1    2.82    1.31
   3  -2  -1    0.46    0.83
   3   2  -1    0.69    0.82
   3  -2   1    1.53    0.99
  -3   2   1   -0.81    2.14
  -3  -2  -1    3.33    1.76
   3   2  -1    3.40    2.47
   3   2   2  202.37    8.95
   3   2  -2  213.55    9.28
   3   2  -2  192.71    5.04
  -3   2   2  196.80    6.49
  -3   2  -2  194.89    8.08
  -3  -2  -2  210.16    8.14
  -3   2  -2  193.15    7.61
  -3  -2  -2  194.01    6.40
  -3  -2   2  198.57    7.92
  -3   2   2  201.81    8.76
   3   2  -2  202.13    8.12
   3  -2  -2  196.66    4.97
  -3  -2   2  195.87    9.16
  -3   2   2  203.57    9.08
  -3   2  -2  193.35    6.79
   3  -2  -2  201.04    7.20
  -3  -2  -2  203.71    9.14
  -3  -2   2  197.80    7.76
   3  -2  -2  213.03    9.46
   3  -2   2  203.90    6.89
  -3  -2  -2  199.10    8.99
   3   2   2  212.85    6.66
   3   2   2  209.13    8.90
   3  -2  -3  530.00   14.50
   3  -2  -3  506.28   11.13
  -3  -2  -3  500.88   13.92
  -3  -2   3  482.95   13.17
  -3   2  -3  504.80   13.33
   3  -2  -3  498.44    7.77
   3   2  -3  494.78    8.37
  -3   2   3  488.71   10.32
   3   2  -3  512.20   13.04
  -3  -2  -3  515.72   14.51
  -3  -2   3  521.73   13.08
  -3   2   3  521.00   14.13
   3   2  -3  511.32   13.06
   3  -2  -3  519.59   14.73
  -3  -2   3  504.63   12.81
   3   2   3  502.72   14.06
   3  -2   3  498.83    9.81
   3  -2  -3  509.42   10.55
  -3  -2  -3  508.78   11.19
   3   2   3  511.22   14.28
  -3   2  -3  506.86   11.62
   3   2  -3  515.30   14.52
  -3   2   3  497.43   14.21
   3  -2   3  514.70   11.70
  -3  -2   3  498.23   14.45
  -3   2  -3  509.81   12.97
   3   2   3  510.79   11.10
  -3  -2   4  578.38   14.16
   3   2   4  592.33   12.91
  -3   2   4  577.01   11.71
  -3  -2  -4  587.16   13.00
   3   2  -4  603.76   14.53
   3  -2  -4  599.53   11.80
   3   2  -4  618.22   15.95
   3  -2   4  603.02   13.54
   3   2  -4  621.43   14.89
   3  -2  -4  603.72   15.51
  -3   2  -4  594.40   15.09
  -3  -2  -4  593.09   15.79
   3  -2  -4  576.82    8.56
  -3  -2  -4  609.64   16.21
  -3  -2   4  598.62   14.59
  -3  -2   4  596.02   14.61
  -3   2  -4  601.23   13.64
  -3   2   4  594.01   15.84
  -3  -2   4  577.62   15.60
   3  -2   4  579.49    9.76
  -3   2  -4  599.44   14.71
   3   2   5  368.92   10.94
  -3   2  -5  357.82   11.23
  -3   2   5  352.69    5.75
  -3  -2   5  345.30   11.39
  -3   2   5  357.47   12.71
   3  -2   5  353.57    6.88
  -3  -2  -5  365.62   10.92
  -3  -2  -5  358.74   12.54
   3  -2  -5  353.73   12.31
   3   2  -5  368.62   12.04
  -3  -2  -5  359.79   12.87
   3   2  -5  380.75   11.81
  -3   2   5  354.56    9.69
   3  -2  -5  370.39    9.74
  -3  -2   5  364.75   11.56
   3  -2   5  370.29   11.29
  -3  -2   5  369.77   12.50
   3   2  -6   -0.45    1.52
   3   2   6   -1.30    2.02
  -3   2   6   -1.46    2.53
  -3  -2  -6   -1.64    1.80
  -3   2   6   -0.45    1.65
  -3   2   6   -0.22    0.46
   3  -2  -6   -6.81    2.84
   3  -2   6   -0.82    0.98
  -3  -2  -6    0.41    2.51
   3  -2  -6   -1.17    1.49
  -3  -2  -6   -5.15    3.92
  -3   2  -6   -0.31    1.77
  -3   2   7  227.89    4.81
   3   2   7  229.06    9.78
  -3  -2  -7  239.86   10.85
  -3  -2   7  233.93    9.83
  -3   2   7  225.76    8.63
  -3   2   7  225.98   10.72
   3  -2  -7  242.90    8.81
   3   2  -7  239.84   10.66
   3  -2  -7  232.87   10.79
   3  -2   7  225.66    7.10
  -3  -2  -7  237.40   11.15
  -3   2  -7  230.55    9.96
   3   2   8  371.27    9.71
  -3  -2   8  386.16   12.95
  -3   2   8  392.60   14.27
   3   2  -8  382.74   14.12
   3  -2  -8  381.98   14.07
   3  -2   8  372.83    8.78
  -3  -2  -8  395.19   14.25
   3  -2  -8  392.24   11.74
  -3  -2  -8  384.52   14.53
  -3   2  -8  395.28   13.60
  -3   2   8  374.51   11.63
  -3   2   8  370.60    6.72
  -3   2   9    5.84    1.05
   3  -2  -9    5.06    1.75
  -3  -2   9    3.78    1.95
   3   2   9    6.78    1.54
  -3   2   9    3.24    1.71
   3   2  -9    4.03    2.45
  -3  -2  -9    4.46    2.86
  -3   2  -9   10.04    3.57
   3  -2  -9    6.58    2.59
   3  -2 -10    3.92    1.04
  -3   2  10    2.89    1.02
   3  -2 -10    1.53    2.61
  -3   2  10    2.65    1.61
   3   2 -10    1.49    2.46
  -3  -2 -10    1.85    2.36
  -3  -2 -10    0.03    2.69
  -3  -2  10    1.82    1.93
  -3  -2  11   33.07    4.35
   3  -2 -11   31.28    2.62
  -3  -2 -11   32.83    5.05
   3   2 -11   33.10    5.06
  -3   2  11   32.96    4.16
  -3   2 -11   35.23    5.18
   3  -2 -11   31.84    4.77
  -3  -2 -11   33.27    5.22
  -3   2  11   32.24    2.63
  -3  -2  12   74.60    6.54
   3  -2 -12   71.60    4.15
   3  -2 -12   70.89    7.06
  -3  -2 -12   78.36    7.38
  -3   2 -12   78.66    7.54
  -3   2  12   72.64    4.21
  -3  -2 -12   63.41    6.96
  -3  -2 -13   44.26    6.02
  -3  -2  13   36.55    4.70
   3  -2 -13   34.99    3.15
   3  -2 -13   31.48    5.19
  -3   2 -13   39.12    6.04
  -3   2  13   39.98    3.47
  -3  -2 -13   35.41    5.74
  -3  -2  14   74.40    6.95
   3  -2 -14   69.64    4.70
   3  -2 -14   68.91    7.34
  -3  -2 -14   72.11    7.52
  -3   2  14   78.65    4.97
  -3   2 -14   84.30    8.36
  -3  -2 -14   84.79    8.25
  -3  -2  15   61.70    6.72
   3  -2 -15   56.90    4.53
  -3  -2 -15   59.54    7.34
   3  -2 -15   62.91    7.31
  -3   2 -15   64.20    7.71
  -3  -2 -15   66.68    7.82
   3  -2 -16  112.01   10.09
   3  -2 -16  120.01    8.67
  -3  -2 -16  115.75   10.15
  -3   2 -16  118.54   10.41
  -3   2 -16   96.87    3.33
  -3  -2 -16  118.30   10.36
  -3  -2  16   99.83    8.72
   3  -2 -17   61.55    6.60
   3  -2 -17   68.03    8.24
  -3   2 -17   55.38    2.75
  -3  -2 -17   69.52    8.56
  -3   2 -17   64.35    8.21
  -3  -2 -17   63.34    7.97
  -3  -2  17   63.32    7.34
   3  -2 -18   93.98    9.62
  -3   2 -18   97.21   10.03
   3  -2 -18   92.36    8.20
  -3  -2 -18   91.41    9.44
  -3  -2 -18  101.48   10.17
  -3  -2  18   99.41    9.03
  -3  -2  19   -1.15    2.68
   3  -2 -19   -5.22    4.54
  -3  -2 -19    3.28    3.53
  -3   2 -19   -1.31    2.83
   3  -2 -19    0.85    2.46
  -3  -2 -20   27.05    5.89
  -3  -2  20   27.27    5.22
   3  -2 -20   33.95    6.41
  -3   2 -20   35.29    6.86
   3  -2 -20   27.38    4.95
  -3  -2  21   35.74    6.21
   3  -2 -21   41.53    7.14
   3  -2 -21   46.86    6.60
  -3   2 -21   49.04    8.13
  -3  -2 -21   46.91    7.81
  -3  -2  22   17.81    4.73
   3  -2 -22   13.78    5.15
  -3   2 -22   19.90    5.98
  -3  -2 -22   16.62    5.35
   3  -2 -22   14.55    4.50
  -3  -2  23   -2.94    3.15
   3  -2 -23   -9.16    5.18
  -3  -2 -23   -2.23    3.22
  -3   2 -23    1.02    3.51
   3  -2 -23    1.40    2.43
  -3  -2  24   -0.69    2.56
  -3   2 -24   -1.67    2.99
  -3  -2 -24   -2.75    4.97
   3  -2 -24   -2.34    2.66
   3  -2 -24   -1.71    3.87
  -3  -2  25    2.31    2.48
  -3   2 -25    8.38    5.35
  -3  -2 -25   -0.57    3.68
   3  -2 -25    1.48    2.53
   3  -2 -25    4.19    3.37
   3  -2 -26   -0.36    3.31
  -3  -2 -26   -1.32    4.36
  -3  -2 -26   -2.52    4.12
  -3   2 -26    5.15    4.23
   3  -2 -26    0.28    2.45
  -3  -2  26   -1.52    3.07
  -3   2 -27   22.98    6.73
  -3  -2 -27   15.22    5.34
  -3  -2  27   18.39    5.23
  -3  -2 -27   21.50    6.45
   3  -2 -27   13.81    5.32
   3   2 -27   17.90    5.52
   3  -2 -27   21.32    5.65
  -3  -2 -28    7.26    4.59
   3  -2 -28    0.97    3.06
   3   2 -28    8.84    4.66
  -3  -2 -29    9.47    4.92
  -3   3   0    4.46    1.80
  -3   3   0    1.20    0.88
  -3   3   0    1.80    2.10
  -3  -3   0   -0.49    1.04
  -3   3   0    2.46    2.71
  -3   3   0    0.89    1.07
  -3  -3   0   -3.43    1.78
  -3   3   0    1.12    1.76
  -3  -3   0    0.64    1.55
   3   3   0   -0.27    1.28
  -3  -3   0    1.58    2.33
  -3   3   1   96.41    4.94
  -3   3   1   95.19    5.56
  -3  -3   1   97.40    5.38
  -3  -3  -1   93.73    4.92
  -3   3   1   96.88    3.17
   3   3  -1   90.01    4.64
   3   3   1  103.89    5.13
  -3  -3  -1   96.17    5.16
  -3   3   1   99.09    6.19
   3   3  -1  100.76    5.48
  -3  -3   1   88.17    6.59
  -3  -3   1   95.52    5.30
  -3   3  -1  100.44    5.85
  -3   3   1   98.55    6.44
   3  -3   1   90.08    5.40
  -3   3   1   95.88    4.34
  -3   3  -1   93.97    4.25
  -3   3  -1   99.70    5.17
  -3   3  -1  100.31    5.63
   3  -3  -2  841.55   13.88
   3  -3  -2  822.45   15.55
  -3  -3  -2  830.48   19.36
   3   3   2  859.58   15.41
   3   3  -2  838.91   13.58
  -3  -3   2  851.58   19.55
  -3  -3  -2  820.12   15.13
  -3  -3   2  864.41   18.88
  -3  -3   2  845.32   15.96
  -3   3   2  879.44   18.50
   3   3  -2  837.71   15.87
  -3  -3  -2  838.97   15.17
  -3   3  -2  839.03   16.50
  -3   3   2  826.28   15.83
  -3   3   2  841.51   11.31
  -3   3  -2  833.11   13.72
  -3   3   2  839.30   18.36
  -3  -3   2  834.43   15.45
   3  -3   2  844.87   15.63
  -3   3  -2  847.20   15.99
  -3   3  -3  128.11    6.85
   3  -3   3  133.13    5.98
   3  -3  -3  142.31    7.91
   3  -3  -3  131.83    6.33
   3   3  -3  129.65    5.66
  -3  -3   3  133.55    7.72
  -3   3   3  124.31    6.26
  -3  -3  -3  138.80    6.58
  -3   3   3  137.66    7.38
   3   3  -3  130.68    6.64
  -3   3   3  132.98    7.41
   3   3  -3  139.61    6.66
  -3  -3  -3  136.72    8.30
  -3  -3   3  133.55    6.40
  -3  -3   3  133.72    7.91
   3   3   3  123.22    6.27
  -3   3  -3  136.49    6.09
   3  -3  -3  146.95    5.69
  -3   3  -3  140.84    6.93
  -3   3   3  130.51    3.88
  -3  -3   3  134.64    6.71
   3   3  -4  421.04   10.32
   3  -3  -4  454.46   11.96
  -3  -3   4  421.90   13.71
   3   3  -4  452.91   12.24
  -3   3   4  429.56   11.66
  -3  -3  -4  434.37   12.18
   3   3  -4  441.55   12.59
   3  -3  -4  428.05   13.50
   3  -3  -4  431.83    9.60
   3   3   4  428.32   12.08
  -3  -3   4  428.40   11.87
  -3  -3  -4  467.36   15.02
  -3   3   4  451.53   14.02
  -3  -3   4  446.40   14.43
  -3   3  -4  441.84   11.71
   3  -3   4  438.74   10.15
  -3   3  -4  468.41   13.17
  -3  -3  -5 3554.80   39.63
  -3   3   5 3508.82   34.61
  -3  -3  -5 3595.19   42.72
  -3  -3   5 3521.59   39.52
   3  -3  -5 3624.23   34.48
   3   3  -5 3540.64   36.73
   3  -3  -5 3584.97   39.21
  -3  -3  -5 3607.31   36.59
   3   3  -5 3607.72   35.79
  -3  -3   5 3509.29   40.21
  -3   3   5 3563.72   40.15
   3   3   5 3569.89   36.46
  -3  -3   5 3555.29   35.77
  -3   3  -5 3507.22   35.08
   3  -3  -5 3539.93   27.19
  -3   3   6  681.36   15.81
   3   3   6  718.31   17.21
  -3  -3  -6  699.49   18.10
  -3  -3   6  684.13   17.82
  -3  -3  -6  717.78   19.48
   3  -3  -6  704.22   15.93
   3   3  -6  684.18   17.05
   3   3  -6  692.79   16.37
  -3  -3   6  709.09   18.14
  -3   3  -6  679.31   16.79
  -3   3   6  713.07   18.38
   3  -3  -6  692.30   17.97
   3   3   7   98.03    6.93
  -3   3   7   98.54    6.26
  -3  -3  -7  108.56    7.56
   3  -3  -7  103.85    6.36
  -3  -3  -7   93.26    7.36
   3   3  -7   93.73    6.58
   3  -3  -7   90.24    6.89
  -3   3   7   94.73    7.24
  -3   3  -7   97.77    7.14
  -3  -3   7   94.40    6.83
   3  -3  -7   94.85    3.82
  -3  -3   7   92.55    6.77
   3   3   8  342.73   13.04
   3   3   8  339.25   10.88
  -3   3   8  344.21   13.60
   3   3  -8  339.16   13.08
   3  -3  -8  345.82   13.44
  -3  -3  -8  340.04   13.43
  -3  -3  -8  331.54   14.12
   3  -3  -8  343.66    8.03
  -3   3  -8  372.99   13.46
   3  -3   8  330.65    8.33
  -3   3   8  343.47   12.13
  -3  -3   8  341.96   13.01
  -3  -3   9 1232.12   25.27
   3  -3   9 1222.49   14.71
  -3  -3  -9 1202.71   25.49
   3   3  -9 1244.83   25.63
   3  -3  -9 1232.80   16.77
   3  -3  -9 1237.27   25.88
   3   3   9 1241.33   25.95
  -3   3  -9 1235.43   13.35
  -3   3  -9 1220.69   25.62
  -3   3   9 1223.30   23.97
  -3  -3  -9 1264.82   27.52
   3   3   9 1226.83   20.74
   3   3  10  207.13   11.04
  -3   3 -10  200.29    5.25
  -3  -3 -10  204.16   10.81
   3   3 -10  202.46   10.90
   3  -3 -10  199.83   11.02
  -3   3  10  198.94   10.13
  -3  -3  10  212.00   10.84
  -3  -3 -10  213.61   11.98
  -3   3 -10  226.51   11.65
   3  -3 -10  215.01    7.74
   3   3  10  211.93    8.72
  -3   3  11   47.30    5.13
   3  -3 -11   44.40    2.31
   3   3 -11   43.57    5.21
   3   3  11   48.01    5.61
  -3  -3 -11   52.97    5.94
  -3  -3 -11   48.53    5.89
  -3   3 -11   52.83    6.09
   3  -3 -11   48.75    5.65
   3  -3 -11   49.52    4.13
  -3  -3  11   46.95    5.51
  -3   3 -11   47.18    2.55
  -3   3 -12    0.88    0.71
  -3  -3  12   -0.35    2.43
  -3  -3 -12    0.38    3.06
   3  -3 -12   -0.92    2.76
   3  -3 -12    0.32    0.61
  -3  -3 -12    1.36    3.07
  -3   3  12    5.07    2.76
  -3   3 -12    2.01    3.22
   3  -3 -12   -0.02    1.46
  -3  -3  13  429.25   16.67
  -3  -3 -13  431.16   17.02
  -3   3  13  421.06   16.47
  -3   3 -13  391.29    7.22
  -3  -3 -13  434.58   18.18
   3  -3 -13  430.96   17.52
   3  -3 -13  404.84    8.92
  -3   3 -13  414.07   17.62
   3  -3 -13  422.06   13.14
  -3  -3  14   -0.83    2.59
  -3   3  14    1.72    2.63
   3  -3 -14    0.91    2.94
   3  -3 -14   -0.23    0.79
  -3   3 -14    4.34    4.39
  -3  -3 -14    1.80    3.36
  -3  -3 -14    2.06    3.88
   3  -3 -14    0.44    2.05
  -3  -3  15  303.83   14.82
  -3  -3 -15  289.19   15.88
   3  -3 -15  300.56   15.51
  -3  -3 -15  293.61   15.13
  -3   3 -15  294.80   15.52
   3  -3 -15  292.55   12.27
  -3  -3 -16    2.60    3.30
   3  -3 -16    3.21    3.66
  -3  -3 -16    6.19    4.58
   3  -3 -16    5.21    2.76
  -3  -3  16    7.25    3.55
  -3   3 -16    6.36    4.36
  -3   3 -17  327.12   17.34
   3  -3 -17  303.32   16.74
  -3  -3 -17  312.47   17.19
  -3  -3 -17  300.55   15.89
   3  -3 -17  319.42   14.03
  -3  -3  17  305.55   15.62
  -3  -3 -18  101.87    9.96
   3  -3 -18  110.52   10.34
  -3  -3 -18  101.44   10.84
  -3   3 -18  107.37   10.88
   3  -3 -18  110.25    8.89
  -3  -3  18   94.84    9.27
  -3  -3 -19  145.52   12.31
   3  -3 -19  129.03   11.42
  -3   3 -19  144.00   12.60
   3  -3 -19  133.16    9.92
  -3  -3  19  135.95   11.09
  -3  -3 -19  121.49   10.83
  -3  -3  20   14.59    4.97
  -3   3 -20   14.97    5.53
   3  -3 -20    9.95    3.58
   3  -3 -20   14.56    4.41
  -3  -3 -20    8.03    4.36
  -3  -3 -20    7.51    3.78
  -3  -3 -21   33.98    6.55
  -3  -3 -21   29.71    6.71
   3  -3 -21   31.59    5.12
   3  -3 -21   24.84    5.59
  -3  -3  21   29.75    5.95
  -3   3 -21   32.05    6.53
  -3  -3  22   13.10    4.43
  -3  -3 -22   14.55    5.60
  -3  -3 -22   14.92    5.37
   3  -3 -22    8.95    4.15
  -3   3 -22   12.45    5.10
   3  -3 -22   12.23    3.86
   3  -3 -23  100.90   11.28
   3  -3 -23  113.48   10.43
  -3  -3 -23  112.37   12.08
  -3   3 -23  123.01   12.88
  -3  -3  23  107.51   11.13
  -3  -3 -23  108.23   11.47
  -3  -3  24    1.17    2.66
   3  -3 -24   -2.63    3.85
  -3  -3 -24    1.28    3.94
   3  -3 -24    1.20    2.65
  -3   3 -24   -1.94    3.52
  -3  -3 -24    0.65    3.49
   3  -3 -25    2.13    2.78
  -3  -3 -25    0.35    3.28
  -3  -3  25    5.50    3.35
   3  -3 -25    1.54    2.64
  -3  -3 -25    5.29    4.59
  -3   3 -25    9.56    4.81
  -3  -3  26   25.51    6.15
   3  -3 -26   20.04    5.90
  -3  -3 -26   28.03    7.04
  -3  -3 -26   24.78    6.59
  -3   3 -26   29.77    7.39
   3  -3 -26   26.69    5.93
   3  -3 -27   52.74    9.00
  -3  -3 -27   45.87    8.42
  -3  -3 -27   47.87    8.93
  -3   3 -27   51.35    9.32
  -3  -3  27   42.56    7.65
   3   3 -28   15.82    6.15
  -3  -3  28   18.31    5.45
  -3  -3 -28   18.47    5.91
  -3  -3 -29   15.00    5.45
  -3   4   0    0.43    1.28
  -3   4   0    0.21    0.63
  -3  -4   0   -0.59    1.28
   3  -4   0    2.57    2.17
  -3  -4   0   -0.42    1.15
  -3   4   0    0.53    2.10
  -3   4   0   -0.81    2.02
  -3  -4   0    0.96    1.03
  -3   4   0    0.26    1.00
   3   4   0   -2.05    2.15
  -3   4  -1  297.85    9.32
  -3   4   1  295.00    8.05
   3  -4   1  288.44   10.65
  -3   4   1  296.88   11.07
  -3  -4  -1  284.66    8.75
  -3   4  -1  277.68   10.81
  -3  -4  -1  292.35    9.93
  -3   4   1  302.39   11.02
  -3  -4   1  296.17    8.98
   3   4  -1  293.91    9.61
  -3  -4   1  295.87   12.04
   3   4   1  300.55   10.04
  -3  -4  -1  298.33    8.64
   3   4  -1  283.75    8.97
  -3   4   1  301.07    8.43
  -3   4   1  273.35    4.90
   3  -4   1  287.59    9.31
  -3  -4   1  288.54    8.59
   3  -4  -1  288.55   11.20
  -3   4  -1  286.23    7.31
  -3   4  -1  297.83    9.46
  -3  -4   2    2.03    1.29
  -3   4  -2    0.79    1.02
  -3   4  -2    1.40    1.39
  -3   4   2    1.55    0.79
  -3  -4   2    4.92    2.48
  -3  -4  -2    2.61    1.42
  -3  -4   2    1.40    1.03
  -3   4   2    0.48    1.68
   3   4  -2    0.14    1.45
   3  -4   2    8.86    2.83
   3   4  -2    2.23    1.68
   3  -4  -2    1.60    2.59
   3  -4   2    2.43    1.73
  -3  -4  -2    1.05    1.18
  -3  -4   2    1.35    2.48
  -3   4  -2    2.40    1.28
   3   4   2    1.93    1.61
  -3   4   2   -1.00    2.84
  -3  -4   3   63.89    6.07
  -3   4   3   63.75    2.95
   3   4  -3   69.25    4.65
   3  -4  -3   70.98    5.46
   3   4  -3   62.29    4.60
   3   4   3   65.64    5.09
  -3  -4  -3   62.94    5.04
  -3  -4   3   62.75    6.01
  -3   4   3   64.49    5.25
   3  -4   3   72.31    5.28
   3  -4  -3   60.70    5.59
   3   4  -3   59.07    4.47
   3  -4   3   68.05    5.55
  -3  -4  -3   61.46    5.62
  -3   4   3   58.33    5.20
  -3   4  -3   63.90    4.35
  -3  -4   3   62.75    4.28
  -3  -4  -3   67.55    4.43
  -3   4  -3   65.68    4.98
  -3  -4   4 1079.76   18.27
   3   4  -4 1095.20   19.09
  -3  -4   4 1107.78   23.66
  -3  -4  -4 1107.49   24.05
  -3   4   4 1075.03   20.98
   3  -4  -4 1082.39   13.62
  -3   4   4 1091.80   22.14
   3   4   4 1081.84   20.96
   3   4  -4 1101.82   18.79
  -3  -4   4 1058.68   23.30
  -3   4  -4 1107.86   18.79
   3   4  -4 1089.58   19.41
   3  -4   4 1115.29   21.63
   3  -4  -4 1068.52   21.57
  -3  -4   5   45.06    5.05
   3   4  -5   48.72    4.57
  -3  -4   5   50.50    5.64
   3   4  -5   51.17    4.71
  -3   4   5   50.12    4.86
   3  -4  -5   48.70    5.24
   3  -4   5   54.39    5.75
  -3  -4  -5   44.78    5.37
   3  -4  -5   48.25    2.89
   3   4  -5   46.74    4.06
   3   4   5   43.19    4.45
  -3   4   5   48.19    5.02
  -3   4  -5   50.19    4.77
  -3  -4   6  161.84    9.46
   3   4  -6  149.34    8.03
   3  -4  -6  142.28    8.38
  -3   4  -6  155.99    6.78
  -3   4   6  147.33    8.73
  -3  -4  -6  153.68    9.59
  -3  -4   6  158.18    9.09
   3   4   6  153.97    8.65
  -3   4  -6  142.71    7.80
   3  -4  -6  155.91    5.13
   3   4  -6  144.35    7.32
  -3   4   6  158.95    8.44
   3  -4   6  158.57    9.05
  -3  -4   7  130.47    8.62
  -3   4   7  129.84    7.84
   3   4  -7  116.51    7.39
   3  -4  -7  128.05    7.94
  -3   4  -7  125.28    5.89
  -3  -4  -7  125.68    8.23
  -3  -4  -7  143.05    9.48
   3  -4  -7  111.62    3.05
  -3   4  -7  126.18    7.62
  -3  -4   7  137.15    8.48
  -3   4   7  130.85    8.33
   3   4   7  124.17    8.10
   3  -4   7  125.83    8.33
  -3  -4  -8   48.22    5.63
  -3  -4   8   54.69    6.33
  -3   4   8   42.43    4.97
   3   4  -8   52.50    5.30
  -3  -4  -8   47.67    5.79
   3  -4  -8   43.91    2.49
   3  -4  -8   42.73    4.85
  -3   4  -8   50.48    5.53
  -3   4   8   50.55    5.26
  -3   4  -8   47.25    3.55
  -3  -4   8   45.48    5.19
   3  -4   8   57.80    6.60
   3   4   8   49.39    5.65
   3   4   9  732.19   20.86
  -3  -4  -9  769.35   20.46
  -3  -4   9  717.47   21.12
   3   4  -9  725.39   19.86
   3  -4  -9  773.58   20.83
  -3   4  -9  764.79   13.71
  -3   4   9  729.25   19.79
  -3  -4  -9  765.37   22.25
  -3  -4   9  754.67   19.88
   3  -4  -9  740.11   11.71
  -3   4  -9  735.24   20.16
   3  -4   9  736.52   21.48
  -3  -4  10    6.48    3.05
  -3   4  10    5.80    2.51
   3   4 -10    6.10    2.22
  -3   4 -10    7.78    1.64
   3   4  10    6.17    2.47
   3  -4  10    4.77    0.98
   3  -4  10    5.80    3.65
  -3  -4 -10    6.55    2.70
   3  -4 -10    6.09    3.48
  -3  -4 -10    1.92    3.26
   3  -4 -10    7.34    1.54
  -3   4 -10    9.44    3.47
   3  -4  11    1.20    2.55
  -3  -4  11   -1.16    2.91
  -3  -4 -11    0.02    2.35
   3  -4  11    0.33    0.52
   3   4  11   -3.12    3.04
  -3   4  11   -1.33    2.05
   3  -4 -11    4.44    2.97
  -3  -4 -11    0.86    3.65
   3  -4 -11    0.34    1.10
  -3   4 -11   -1.19    2.47
  -3   4 -11    0.45    1.10
  -3  -4  12   16.50    3.79
  -3   4 -12   19.38    2.38
   3  -4 -12   20.61    4.70
  -3  -4 -12   16.25    3.91
  -3   4  12   17.35    3.68
   3  -4 -12   17.31    2.44
  -3  -4 -12   14.34    3.93
  -3   4 -12   17.12    3.85
   3   4  12   16.11    3.49
   3  -4  12   14.39    4.08
  -3  -4  13    8.34    3.21
   3  -4 -13    9.00    1.00
  -3   4  13    7.47    2.95
   3  -4 -13    9.24    3.30
  -3  -4 -13    9.70    3.69
   3   4  13   10.99    3.15
  -3   4 -13   10.49    3.34
  -3  -4 -13    7.73    3.17
   3  -4 -13   12.92    2.47
  -3   4 -13   14.56    2.14
  -3  -4  14    1.35    2.66
  -3   4  14    2.27    2.35
   3  -4 -14    1.56    2.86
   3   4  14   -2.29    3.34
  -3  -4 -14    5.00    3.15
  -3   4 -14   -0.41    2.76
  -3  -4 -14    3.20    3.52
   3  -4 -14    3.56    2.25
  -3   4 -15   -2.48    3.45
  -3  -4  15    1.34    2.84
  -3   4  15   -0.61    2.72
  -3  -4 -15    0.70    3.67
  -3  -4 -15   -2.84    2.90
   3  -4 -15    0.58    1.56
   3  -4 -15   -0.16    2.78
  -3  -4 -16   16.95    4.27
  -3  -4  16   18.21    4.55
  -3   4  16   13.02    3.61
   3  -4 -16   16.93    3.41
  -3  -4 -16   13.77    4.76
   3  -4 -16   15.84    4.42
  -3   4 -16   11.74    3.78
   3  -4 -17    6.25    2.94
  -3  -4  17   12.37    3.69
  -3   4 -17    7.91    3.55
  -3  -4 -17    9.79    3.74
  -3   4  17    6.23    2.60
  -3  -4 -17    9.67    4.10
   3  -4 -17    9.43    2.53
  -3  -4 -18   -2.46    2.97
  -3  -4 -18   -2.38    3.34
  -3  -4  18   -1.35    3.28
   3  -4 -18   -2.53    2.13
  -3   4 -18   -1.53    3.48
   3  -4 -18    0.51    3.53
  -3  -4  19    2.97    3.47
   3  -4 -19    0.64    2.69
  -3  -4 -19    4.32    3.40
  -3  -4 -19    7.90    4.12
  -3   4 -19    2.78    2.86
   3  -4 -19    6.63    2.90
  -3  -4  20   54.85    7.86
  -3  -4 -20   49.67    7.23
   3  -4 -20   49.31    7.69
   3  -4 -20   52.97    6.40
  -3  -4 -20   59.01    8.52
  -3   4 -20   59.31    8.54
  -3  -4 -21    5.35    3.51
  -3  -4  21    4.06    3.37
   3  -4 -21    6.07    4.05
  -3  -4 -21   10.86    4.69
  -3   4 -21    5.92    4.25
   3  -4 -21   -0.56    2.62
  -3  -4  22   -0.53    3.09
   3  -4 -22   -3.44    3.46
  -3  -4 -22    1.30    3.11
  -3   4 -22   -1.45    3.59
  -3  -4 -22    3.04    3.50
   3  -4 -22   -1.29    2.48
  -3  -4  23    0.67    2.67
   3  -4 -23    0.28    2.79
  -3  -4 -23    2.14    3.43
  -3   4 -23    0.80    3.02
  -3  -4 -23    1.49    3.33
   3  -4 -23    3.03    2.76
  -3  -4  24   -2.66    3.19
   3  -4 -24    0.19    2.87
  -3  -4 -24   -0.60    3.27
  -3   4 -24    2.31    3.41
  -3  -4 -24   -5.45    4.29
  -3  -4  25   -4.73    3.96
  -3  -4 -25   -0.87    3.60
  -3  -4 -25   -3.97    4.48
   3  -4 -25    3.43    3.46
  -3   4 -25    2.34    4.32
  -3   4 -26    3.92    4.20
   3  -4 -26    6.06    3.40
  -3  -4 -26    2.73    2.87
  -3  -4  26    5.21    3.30
  -3  -4 -26    9.70    4.82
  -3  -4  27   -0.85    3.20
  -3  -4 -27    0.92    3.38
   3  -4 -27   -3.37    4.24
  -3  -4 -27   -0.12    3.62
   3  -4 -27   -8.62    4.87
  -3  -4  28   -3.88    4.17
   3  -4 -28   -0.27    3.63
  -3  -4 -28    5.57    4.45
   3  -4 -29   -7.45    5.27
  -3  -4 -29   -1.14    3.00
  -3  -4  29    3.08    3.73
   3  -5   0    0.95    1.52
  -3   5   0    0.14    1.15
  -3   5   0    1.22    0.85
   3  -5   0    1.73    2.72
   3   5   0   -2.75    2.32
  -3  -5   0   -1.25    2.32
  -3   5   0   -1.31    2.79
  -3   5   0   -0.01    0.62
  -3   5   0    1.50    2.02
  -3  -5   0   -1.84    1.56
  -3  -5   0   -0.53    1.15
  -3   5  -1  334.44   10.58
  -3   5   1  316.42    8.51
  -3   5   1  334.15    9.25
  -3   5  -1  319.96   12.89
  -3   5   1  329.40   12.68
   3   5  -1  338.18   11.81
  -3  -5   1  336.64   13.81
   3  -5   1  338.78   12.71
   3   5   1  312.63   11.56
  -3  -5  -1  330.67    8.51
  -3   5  -1  317.84    9.96
  -3   5   1  327.80   11.94
   3  -5  -1  330.71   13.02
  -3  -5   1  304.36    8.46
  -3   5  -1  318.68   12.15
  -3   5   1  303.61    5.62
  -3   5  -1  325.06    8.24
  -3  -5  -1  311.12    8.70
   3  -5  -1  322.15    9.27
   3  -5   1  327.75   10.70
   3   5  -1  309.06    9.06
  -3   5  -2  580.15   14.72
  -3   5   2  590.28   11.44
  -3   5  -2  595.43   17.57
   3   5  -2  584.72   15.33
  -3   5   2  585.44   17.08
  -3  -5   2  605.75   18.53
  -3  -5  -2  582.56   11.35
   3   5  -2  555.26   12.64
  -3  -5   2  570.80   11.85
  -3   5   2  582.58   15.94
  -3   5   2  578.25   10.43
   3   5   2  585.02   16.08
  -3   5  -2  580.82   12.25
   3  -5   2  596.03   15.20
   3  -5  -2  581.54   11.44
   3  -5  -2  582.50   17.88
  -3   5   3   33.70    4.37
   3  -5  -3   30.57    4.69
  -3  -5   3   25.70    2.69
  -3   5   3   33.83    2.51
  -3   5   3   29.97    4.05
  -3  -5   3   34.46    5.06
  -3   5  -3   31.70    3.40
   3   5  -3   31.69    4.00
   3   5  -3   29.96    3.08
  -3  -5  -3   29.83    2.68
   3   5   3   32.78    4.23
   3  -5  -3   29.91    2.47
   3  -5   3   37.08    4.43
   3   5   4   14.88    3.00
   3   5  -4   17.27    2.84
   3  -5   4   15.28    3.34
   3   5  -4   18.25    2.56
  -3   5  -4   13.41    2.38
  -3   5   4   10.77    2.69
  -3   5   4   13.76    1.40
  -3   5   4   11.27    2.63
  -3  -5   4   14.18    3.81
   3   5  -4   10.04    2.51
  -3  -5  -4    9.64    3.39
  -3  -5  -4   16.01    2.31
   3  -5  -4   10.18    3.10
  -3   5  -4   13.42    2.49
  -3  -5   4   13.88    3.44
   3   5   5  318.71   12.86
   3   5  -5  327.31   12.23
  -3  -5   5  316.31   14.12
   3  -5  -5  341.17   14.47
  -3   5  -5  330.23   11.45
   3   5  -5  316.92   10.23
  -3   5   5  311.32   12.74
   3   5  -5  310.58   10.95
   3  -5   5  323.11   12.78
  -3   5   5  316.25   12.57
  -3   5  -5  327.17   11.37
  -3  -5  -5  304.00   13.83
  -3  -5   5  322.80   13.39
   3  -5  -5  307.70   12.32
  -3  -5   6  314.49   13.50
   3   5  -6  325.71   12.32
  -3  -5   6  321.48   14.20
  -3   5  -6  325.44   11.97
  -3  -5  -6  340.99   14.54
   3   5  -6  328.04   11.87
  -3   5   6  329.50   13.22
   3  -5  -6  322.92   12.62
   3   5   6  335.48   13.40
  -3   5  -6  326.78   11.22
   3   5  -6  327.11   10.92
   3  -5  -6  313.49   14.33
  -3   5   6  319.41   12.97
   3  -5   6  310.81   13.16
  -3   5  -7  142.18    8.31
  -3  -5   7  144.77    9.86
   3  -5   7  150.39    9.57
  -3   5   7  141.30    8.92
   3  -5  -7  142.88    9.95
   3   5  -7  139.04    7.97
   3  -5  -7  135.25    8.65
  -3  -5   7  140.59    9.06
  -3  -5  -7  140.40    9.83
   3   5  -7  137.01    7.40
   3   5   7  134.68    9.09
  -3   5   7  137.45    8.81
  -3   5  -7  143.04    7.32
   3  -5  -7  125.81    3.46
  -3   5   8  313.68   13.59
  -3  -5  -8  331.28   15.12
  -3  -5   8  327.42   14.78
   3   5  -8  317.76   12.60
   3  -5  -8  313.33   13.09
   3  -5  -8  299.08    5.84
   3  -5  -8  323.42   15.04
  -3  -5   8  319.12   13.46
   3   5   8  339.34   14.36
  -3   5  -8  333.82   13.29
   3  -5   8  324.00   14.26
  -3   5  -8  320.06   10.73
  -3   5   9   -1.15    2.42
  -3  -5  -9    1.46    2.60
   3  -5  -9   -6.14    3.61
  -3  -5   9    0.19    2.47
   3   5   9    2.54    2.66
  -3  -5  -9    4.45    3.79
   3   5  -9   -1.59    2.51
  -3  -5   9   -0.81    2.15
  -3   5  -9    2.25    1.57
   3  -5  -9    4.63    0.86
   3  -5   9    0.00    2.67
   3  -5  -9   -8.67    4.92
   3  -5  -9   -0.44    0.81
  -3   5  -9    0.98    2.36
  -3  -5 -10   23.84    4.29
  -3   5  10   21.77    4.02
  -3  -5  10   26.34    4.86
   3   5  10   22.45    4.33
   3   5 -10   20.77    3.75
   3  -5 -10   18.66    4.26
  -3   5 -10   17.06    4.09
   3  -5 -10   22.41    2.28
   3  -5 -10   17.35    3.84
  -3  -5 -10   28.29    5.24
  -3  -5  10   23.73    4.04
  -3   5 -10   25.02    3.26
   3  -5  10   29.53    5.68
   3   5  11  424.88   17.90
  -3  -5 -11  452.38   18.57
  -3  -5  11  434.40   17.87
  -3   5 -11  433.66   11.96
   3  -5 -11  450.62   16.97
  -3  -5 -11  426.49   16.52
   3  -5 -11  425.44   10.23
   3  -5  11  430.85   18.12
  -3   5  11  431.71   17.13
  -3   5 -11  437.25   17.06
  -3  -5  11  421.01   15.71
  -3   5 -12   40.33    3.85
  -3   5  12   37.20    5.60
   3   5  12   39.49    6.03
   3  -5 -12   41.79    3.58
   3  -5 -12   46.41    5.99
  -3  -5 -12   45.09    6.58
   3  -5  12   32.50    1.94
  -3  -5 -12   37.68    5.43
  -3  -5  12   35.24    5.71
  -3   5 -12   41.34    5.95
   3  -5  12   30.42    5.39
   3  -5  13   23.89    4.22
  -3  -5  13   31.26    5.16
  -3   5 -13   32.67    3.51
  -3   5  13   28.50    4.75
   3   5  13   30.17    5.26
  -3   5 -13   28.88    5.37
   3  -5 -13   32.89    3.52
   3  -5 -13   30.89    5.36
  -3  -5 -13   30.97    5.64
  -3  -5 -13   33.31    6.11
   3  -5 -14   10.53    4.00
  -3  -5  14    9.29    3.84
   3  -5  14    2.15    4.58
  -3  -5 -14    7.46    3.45
  -3   5  14    7.07    3.31
   3  -5 -14    7.67    2.04
  -3  -5 -14    4.63    3.26
  -3   5 -14    7.44    3.65
   3   5  14    9.33    3.41
   3  -5 -15   41.67    4.38
  -3  -5  15   39.72    6.92
  -3   5  15   40.04    6.02
   3  -5  15   46.79    7.22
   3  -5 -15   43.93    6.65
   3   5  15   35.74    6.14
  -3  -5 -15   42.26    6.96
  -3   5 -15   43.92    6.70
  -3  -5 -15   45.38    6.58
  -3  -5  16  317.94   17.09
   3   5  16  339.13   18.27
  -3  -5 -16  307.28   17.17
   3  -5 -16  338.73   17.09
   3  -5  16  337.66   18.17
  -3  -5 -16  324.34   16.01
  -3   5  16  324.67   17.43
  -3   5 -16  301.67   16.97
   3  -5 -16  313.65   12.36
  -3  -5  17  109.51   10.69
  -3   5  17  118.36   10.81
  -3  -5 -17  110.91   10.83
   3  -5 -17  114.43   10.46
  -3  -5 -17  123.43   10.26
  -3   5 -17  110.98   10.83
   3  -5 -17  117.83    7.99
  -3  -5  18   11.00    4.07
   3  -5 -18   12.44    3.05
  -3   5  18   12.02    3.87
  -3  -5 -18   13.37    4.28
  -3  -5 -18   17.57    5.16
   3  -5 -18   16.58    5.04
  -3   5 -18    7.56    3.51
  -3  -5  19   19.94    4.93
   3  -5 -19   20.49    5.01
  -3   5  19   17.40    4.94
  -3  -5 -19   17.31    5.03
  -3  -5 -19   29.76    6.54
   3  -5 -19   16.71    3.62
  -3   5 -19   19.14    5.19
  -3  -5  20   67.95    8.77
  -3  -5 -20   68.75    9.39
  -3  -5 -20   58.98    8.08
   3  -5 -20   62.90    8.38
  -3   5 -20   61.12    8.76
   3  -5 -21   69.18    9.04
  -3  -5 -21   74.10    8.95
  -3  -5 -21   84.26   10.74
  -3  -5  21   77.79    9.77
   3  -5 -21   63.62    9.14
  -3   5 -21   70.88    9.97
  -3  -5 -22   67.51    8.96
   3  -5 -22   68.35    9.41
  -3   5 -22   61.21    9.55
   3  -5 -22   67.90    9.41
  -3  -5 -22   72.51   10.00
  -3  -5  22   64.85    8.97
  -3  -5  23    2.03    3.22
  -3  -5 -23    1.66    3.42
  -3  -5 -23    4.25    4.65
   3  -5 -23    0.52    3.71
   3  -5 -23    3.13    3.39
  -3   5 -23   12.13    5.34
  -3  -5 -24  187.56   14.78
   3  -5 -24  146.20   13.92
  -3   5 -24  171.98   15.84
  -3  -5 -24  175.17   15.68
   3  -5 -24  154.03   14.51
  -3  -5  24  160.45   14.90
  -3  -5  25    4.97    3.69
  -3   5 -25    1.35    3.69
  -3  -5 -25    4.19    4.39
   3  -5 -25    1.48    3.04
  -3  -5 -25    1.98    3.58
   3  -5 -25    1.86    3.91
  -3  -5  26   39.68    7.94
   3  -5 -26   35.18    7.15
   3  -5 -26   26.42    6.84
  -3  -5 -26   36.86    7.36
  -3  -5 -26   38.59    8.15
   3  -5 -27   15.76    5.44
   3  -5 -27    2.64    3.65
  -3  -5 -27   15.16    5.29
  -3  -5  27    9.99    4.62
   3  -5 -28    2.45    3.44
  -3  -5  28   11.91    5.16
  -3  -6   0   -0.26    0.79
   3  -6   0    1.48    1.56
  -3   6   0    0.84    1.25
   3  -6   0    1.66    3.33
  -3  -6   0    0.41    2.78
   3   6   0   -1.37    2.50
  -3   6   0   -0.10    1.22
  -3   6   0   -1.82    2.01
  -3   6   0   -1.26    2.53
   3  -6  -1   13.64    2.49
   3  -6   1   13.00    2.68
  -3  -6   1   12.26    1.66
   3  -6  -1   17.80    4.50
  -3   6  -1   14.22    3.07
  -3  -6   1   11.07    3.16
  -3   6  -1   12.30    3.63
  -3  -6  -1    9.75    3.31
  -3   6   1   11.36    3.33
   3   6  -1    9.42    2.85
  -3   6   1   14.63    2.04
  -3   6   1   14.63    2.35
   3   6   1   10.05    2.52
  -3   6   1   12.36    1.38
  -3  -6  -1   12.93    1.67
  -3   6   1    9.64    2.44
  -3   6   2  339.03    9.65
  -3   6  -2  351.29   14.70
   3  -6  -2  337.89   14.63
   3   6  -2  325.57   12.99
  -3   6   2  337.98   14.19
   3   6   2  325.53   13.41
   3   6  -2  334.81    9.50
  -3  -6  -2  329.79    8.58
  -3   6   2  338.37   12.55
  -3   6   2  302.95    5.13
  -3  -6  -2  324.78    7.68
  -3  -6   2  332.13   14.88
  -3   6   2  335.43    7.78
   3  -6  -2  336.84    9.72
   3  -6   2  336.94   12.12
  -3   6   3   26.32    4.06
   3  -6   3   19.94    3.52
  -3   6   3   23.06    2.41
  -3  -6   3   25.41    4.74
  -3   6   3   26.57    4.44
   3   6   3   23.11    3.96
  -3  -6  -3   25.67    2.24
   3   6  -3   26.44    4.44
   3  -6  -3   25.51    2.64
   3   6  -3   20.72    2.68
   3  -6  -3   20.32    4.76
  -3   6  -3   30.81    5.16
   3  -6   4   37.73    4.69
  -3   6   4   36.84    4.57
  -3   6   4   39.49    5.01
  -3  -6   4   37.66    5.61
   3   6  -4   33.45    4.57
  -3  -6  -4   35.26    2.67
   3   6  -4   44.17    4.22
  -3   6   4   35.92    2.64
   3  -6  -4   38.13    5.76
   3   6   4   33.28    4.61
   3  -6  -4   37.44    2.74
  -3  -6   5   58.45    6.43
   3   6   5   52.66    5.97
  -3  -6   5   55.18    6.52
   3   6  -5   51.57    5.57
   3  -6  -5   53.02    6.48
   3   6  -5   53.70    4.68
  -3  -6  -5   60.65    3.73
   3   6  -5   57.44    4.29
  -3   6   5   50.80    5.70
  -3   6   5   52.47    5.50
   3  -6  -5   54.97    2.83
   3  -6   5   57.44    6.01
  -3   6   6  137.02    8.72
  -3  -6   6  128.40    9.83
   3   6  -6  134.90    8.68
   3  -6  -6  131.30    8.67
   3   6  -6  124.09    7.30
  -3   6   6  136.88    9.45
  -3  -6  -6  126.40    9.86
   3   6   6  122.55    8.81
   3   6  -6  129.65    6.72
  -3  -6   6  135.08    9.40
   3  -6   6  137.51    9.15
   3  -6  -6  138.57   10.21
  -3  -6   7    3.13    2.81
   3  -6  -7   -0.85    3.07
  -3   6   7   -4.93    2.95
   3   6   7   -6.37    3.99
  -3  -6   7    0.57    3.07
  -3  -6  -7    0.87    2.79
   3  -6   7   -0.43    2.41
   3   6  -7    0.91    2.24
   3   6  -7    1.02    1.71
  -3   6   7    1.71    2.49
   3  -6  -7    3.18    2.72
   3   6  -7   -1.98    1.96
   3   6   8   49.80    6.05
  -3  -6   8   55.58    6.75
   3   6  -8   53.30    5.39
   3  -6  -8   56.26    5.89
   3  -6   8   53.11    6.18
  -3  -6  -8   55.20    6.99
  -3  -6   8   55.12    6.48
  -3   6   8   52.85    5.94
   3  -6  -8   50.86    6.59
  -3   6   9   22.65    4.36
  -3  -6   9   20.52    3.90
  -3  -6   9   15.36    4.19
   3   6   9   21.53    4.59
   3  -6  -9   21.86    5.25
   3   6  -9   17.31    3.39
   3  -6   9   18.40    4.10
   3  -6  -9   13.45    3.20
  -3  -6  -9   22.62    4.88
  -3  -6  10   10.08    3.76
   3   6  10    9.46    3.42
  -3  -6  10    8.72    3.09
   3   6 -10    8.09    2.52
   3  -6 -10    8.88    1.34
   3  -6  10    8.39    3.25
   3  -6 -10    3.16    2.74
   3  -6 -10   -0.12    4.19
  -3  -6 -10   10.33    4.15
  -3   6  10    7.87    3.06
  -3   6  11    3.44    2.41
  -3  -6  11    3.56    3.26
   3  -6 -11    8.50    1.58
  -3  -6 -11    3.40    3.62
   3   6  11   11.79    3.96
  -3  -6 -11    9.07    3.11
   3   6 -11    4.50    2.49
  -3  -6  11    4.66    2.18
   3  -6 -11    6.24    2.82
   3  -6 -11    0.38    4.90
   3  -6  11    5.62    3.10
  -3   6 -11    7.02    2.82
   3  -6  12   -0.32    3.44
  -3  -6  12    0.00    3.20
  -3   6  12    1.43    2.84
   3  -6 -12   -3.13    3.00
   3   6  12    1.47    2.81
   3  -6 -12   -1.05    1.32
  -3  -6  12   -3.67    3.45
  -3  -6 -12    2.13    3.43
  -3  -6 -12   -0.78    2.46
  -3   6 -12    1.74    2.94
   3  -6 -12    2.75    3.70
   3  -6  13   25.59    5.57
  -3  -6  13   27.54    5.50
  -3   6  13   32.91    5.46
  -3  -6 -13   33.01    5.30
   3  -6 -13   16.01    3.82
   3  -6 -13   29.60    5.18
   3   6  13   24.48    4.98
   3  -6 -13   25.35    2.90
  -3  -6 -13   31.69    6.30
  -3   6 -13   30.67    5.22
  -3  -6  14   50.77    7.55
  -3   6  14   44.05    6.41
   3   6  14   41.82    6.56
   3  -6 -14   50.40    6.71
  -3  -6 -14   48.41    6.27
   3  -6 -14   50.55    4.37
   3  -6 -14   36.02    6.07
  -3  -6 -14   51.74    7.70
  -3   6 -14   40.34    6.19
   3  -6  14   42.97    6.46
  -3  -6  15    4.28    3.68
  -3   6  15    0.72    3.02
   3   6  15   -0.96    3.92
   3  -6 -15    1.34    4.64
  -3  -6 -15    9.34    3.68
  -3   6 -15    1.87    2.64
  -3  -6 -15    3.50    4.08
   3  -6 -15    6.60    2.12
   3  -6 -15    8.94    4.20
   3  -6  15    0.42    3.53
  -3  -6  16    1.57    3.46
  -3   6  16    4.15    2.97
  -3  -6 -16    3.83    2.81
   3  -6 -16    1.20    2.97
   3  -6 -16   -3.89    4.84
  -3  -6 -16   -4.40    4.09
   3   6  16   -3.04    3.14
  -3   6 -16   -3.50    3.85
   3  -6  16    1.89    3.16
  -3  -6 -17   12.35    3.99
   3   6  17   11.40    4.30
  -3  -6  17   12.39    4.62
   3  -6 -17   15.66    4.35
  -3  -6 -17    7.46    4.25
   3  -6 -17    6.32    3.70
  -3   6  17   12.20    4.26
  -3   6 -17    7.04    3.64
   3  -6  17    6.33    3.61
   3   6  18    3.25    3.92
  -3  -6  18    8.82    3.91
  -3  -6 -18    8.02    3.12
  -3   6  18   10.39    3.82
  -3   6 -18    4.93    3.76
  -3  -6 -18    4.11    3.27
   3  -6 -18   -0.71    4.57
   3  -6  18    6.13    3.19
   3  -6 -18    8.69    3.96
  -3  -6  19    5.28    3.86
  -3  -6 -19    5.51    3.39
  -3  -6 -19    3.89    3.07
  -3   6  19    1.60    2.98
   3  -6 -19   10.23    3.97
  -3   6 -19    8.78    4.52
   3  -6  19    1.05    4.12
  -3  -6 -20    4.38    4.01
  -3   6  20    6.28    3.46
   3  -6 -20   11.29    4.51
  -3  -6  20    9.96    4.56
  -3  -6 -20    5.83    3.09
   3  -6 -20    1.20    4.16
  -3   6 -20   11.71    4.73
  -3  -6  21   -2.33    3.46
   3  -6 -21   -9.06    5.65
  -3  -6 -21    0.61    2.51
  -3  -6 -21   -2.81    4.06
  -3   6 -21   -4.86    3.86
   3  -6 -21    1.53    2.92
   3  -6 -22    1.16    3.28
  -3  -6  22   -3.46    3.25
  -3  -6 -22   -2.33    4.03
   3  -6 -22   -8.52    5.62
  -3  -6 -22    4.28    3.30
  -3   6 -22   -1.36    3.74
  -3  -6 -23    0.58    2.74
  -3  -6  23   -2.79    4.13
  -3   6 -23    2.88    4.06
  -3  -6 -23    1.74    4.02
   3  -6 -23    0.85    3.54
   3  -6 -23   -2.14    3.38
  -3  -6  24    7.55    5.05
   3  -6 -24    7.70    4.01
  -3  -6 -24    4.30    4.01
   3  -6 -24    0.97    3.75
  -3   6 -24    4.39    4.11
  -3  -6  25    1.49    3.82
   3  -6 -25   -0.64    2.82
   3  -6 -25   -0.47    3.37
  -3  -6 -25   -1.65    3.83
  -3   6 -25   -4.76    4.86
  -3  -6  26   -2.81    3.78
   3  -6 -26    2.33    3.05
  -3  -6 -26   -0.62    3.48
   3  -6 -26   -1.31    4.12
   3  -6 -27   -0.32    2.75
   3  -6 -27   -2.81    4.89
  -3  -7   0   -1.19    0.80
   3  -7   0    1.43    1.89
  -3  -7   0   -2.23    3.03
  -3   7   0    1.92    3.28
   3   7   0   -7.48    3.82
  -3   7   0    1.10    1.20
  -3   7   0   -6.34    3.08
  -3   7   1  501.38   13.83
  -3   7  -1  475.91   18.29
  -3  -7   1  488.77   18.79
   3   7  -1  497.94   17.37
  -3  -7  -1  489.18   18.48
   3   7   1  497.19   17.44
  -3   7   1  473.21   14.96
  -3   7   1  510.29   18.61
  -3  -7  -1  442.41    7.95
  -3   7  -1  470.07   15.05
   3  -7   1  486.00   14.89
   3  -7  -1  489.51   13.72
  -3   7   1  478.09   10.57
   3  -7  -2   14.04    2.72
   3   7  -2   15.15    3.81
   3  -7   2   13.68    3.81
   3  -7  -2   18.49    5.28
  -3  -7   2   11.99    4.22
  -3   7   2   12.22    2.26
  -3   7  -2   10.37    3.63
  -3   7   2   12.08    1.62
  -3  -7  -2   15.25    4.61
  -3   7   2   10.63    1.35
   3   7  -2   13.82    2.25
   3   7   2   11.60    3.09
  -3   7   2   10.38    2.70
  -3   7  -2   11.43    3.39
  -3  -7  -2    8.03    1.18
  -3   7   2    9.73    3.63
  -3   7  -3  604.59   20.86
  -3  -7   3  588.46   20.99
   3   7  -3  627.23   19.48
  -3   7   3  588.16   13.17
  -3   7   3  604.59   20.60
   3  -7  -3  602.10   21.20
  -3  -7  -3  605.24   20.72
   3   7   3  617.46   19.97
   3   7  -3  601.64   13.10
  -3  -7  -3  578.12   10.74
   3  -7   3  615.17   18.12
  -3   7   3  585.32   17.14
   3  -7  -3  598.27   13.40
   3   7   4  898.55   24.34
  -3   7  -4  857.27   25.34
  -3  -7   4  899.65   26.18
   3  -7  -4  864.88   25.78
  -3   7   4  892.49   25.22
  -3  -7  -4  777.56    9.77
   3   7  -4  826.26   16.69
   3   7  -4  889.46   23.33
  -3   7   4  881.24   21.34
   3  -7   4  876.16   22.71
   3  -7  -4  885.87   15.05
  -3   7  -5  890.06   26.03
  -3  -7   5  910.24   26.60
   3  -7  -5  907.91   26.79
   3   7  -5  893.09   23.69
  -3   7   5  863.34   25.15
   3   7  -5  855.49   17.93
  -3  -7  -5  822.31   11.13
   3   7  -5  876.76   15.42
   3   7   5  878.14   24.94
   3  -7   5  881.75   23.39
  -3   7   5  895.93   21.86
   3  -7  -5  886.03   13.71
  -3  -7   6  130.46    9.89
   3  -7  -6  144.84   11.50
   3   7  -6  123.75    9.12
  -3   7   6  126.57   10.10
   3   7  -6  118.96    7.17
  -3  -7  -6  119.35    4.72
  -3   7   6  118.60    8.14
   3   7  -6  122.85    6.27
  -3  -7   6  131.51   10.73
   3   7   6  126.28    9.62
   3  -7  -6  124.56    4.53
   3  -7   6  128.87    9.52
   3  -7  -7    0.59    0.46
  -3  -7   7    5.49    3.70
   3  -7   7    1.41    2.83
   3   7   7   -4.03    3.61
   3   7  -7    6.78    3.29
  -3  -7   7    6.35    3.74
   3   7  -7    1.79    2.31
   3  -7  -7    7.93    3.77
   3  -7  -7    2.98    3.56
  -3   7   7    1.94    2.69
  -3  -7  -7    5.79    4.11
   3   7  -7    1.84    1.51
   3  -7  -8  245.82   14.88
   3   7  -8  230.84   12.95
  -3  -7   8  243.83   14.16
   3   7  -8  239.44   11.14
   3  -7  -8  237.21   11.84
  -3  -7  -8  264.21   14.62
   3   7   8  237.74   13.77
   3   7  -8  231.58    9.69
  -3   7   8  244.36   13.77
  -3  -7   8  239.81   13.36
   3  -7   8  247.61   13.81
   3  -7  -9  490.83   20.96
  -3  -7   9  501.55   20.67
  -3  -7  -9  492.41   20.18
   3   7  -9  495.10   16.53
   3  -7  -9  463.33   16.69
  -3  -7   9  517.09   18.96
  -3   7   9  494.36   19.79
   3   7   9  485.40   19.87
   3  -7   9  496.00   19.81
   3  -7  10   51.78    7.05
  -3   7  10   55.38    6.98
   3   7 -10   56.87    6.21
  -3  -7  10   56.10    7.79
   3   7  10   59.19    7.54
   3  -7 -10   57.83    7.82
   3  -7 -10   52.71    6.17
  -3  -7  10   59.59    6.81
  -3  -7 -10   55.55    7.47
   3  -7 -11   -3.89    3.99
  -3   7  11    1.32    2.75
  -3  -7  11   -1.02    3.38
   3   7  11    3.38    3.50
  -3  -7  11    4.30    2.30
  -3  -7 -11   -1.71    3.28
   3  -7  11   -0.74    3.22
   3  -7 -11   -0.69    3.08
   3   7 -11    0.00    2.24
  -3   7  12   67.48    8.29
  -3  -7  12   79.04    9.42
   3   7  12   68.37    8.53
   3  -7 -12   71.65    9.42
   3   7 -12   74.92    7.58
   3  -7 -12   64.90    7.15
  -3  -7 -12   70.44    8.69
  -3  -7  12   65.72    6.98
   3  -7  12   69.26    8.56
  -3  -7  13  656.75   25.32
   3  -7 -13  638.85   21.50
  -3  -7 -13  654.86   25.18
  -3   7 -13  632.62   23.49
  -3  -7  13  654.23   21.12
   3  -7 -13  617.59   25.45
   3  -7  13  641.36   25.08
   3   7  13  673.53   25.37
  -3   7  13  667.80   24.68
   3  -7 -14   33.06    7.23
  -3   7  14   18.09    4.97
  -3  -7 -14   26.62    6.39
   3   7  14   22.07    5.95
   3  -7  14   17.69    5.75
  -3  -7  14   13.47    5.09
   3  -7 -14   15.80    3.75
  -3   7 -14   14.85    4.64
   3  -7  15    1.19    3.14
  -3  -7 -15    9.25    4.31
  -3   7 -15    3.51    2.71
  -3  -7  15    8.52    4.65
   3  -7 -15    9.26    4.46
   3  -7 -15    6.71    3.35
  -3   7  15    9.57    3.88
   3   7  15    1.51    2.79
  -3  -7 -15    6.27    3.25
  -3  -7  16   23.39    5.88
   3  -7 -16   22.23    5.58
  -3   7  16   17.24    4.82
   3   7  16   29.60    6.66
   3  -7 -16   29.03    5.71
  -3  -7 -16   34.17    7.10
   3  -7  16   24.45    5.88
  -3  -7 -16   22.43    4.66
  -3   7 -16   22.34    5.16
  -3  -7 -17  231.32   13.79
  -3  -7  17  232.59   16.40
   3   7  17  231.55   16.61
  -3  -7 -17  262.18   17.12
   3  -7 -17  236.04   14.78
   3  -7 -17  242.57   17.14
  -3   7 -17  238.40   16.05
   3  -7  17  240.73   17.11
  -3   7  17  253.95   16.71
   3  -7 -18    7.59    5.09
  -3  -7  18   11.74    5.60
  -3  -7 -18   14.06    4.23
  -3   7  18    5.32    3.53
   3  -7 -18   12.49    4.34
   3   7  18   11.63    4.94
  -3  -7 -18    6.77    4.45
  -3   7 -18    9.01    4.44
   3  -7  18    5.85    5.06
  -3  -7  19  181.24   15.26
  -3   7  19  166.24   14.39
  -3   7 -19  155.99   13.67
   3  -7 -19  158.29   12.98
  -3  -7 -19  169.58   14.39
   3   7  19  157.93   14.50
   3  -7 -19  159.65   14.41
   3  -7  19  151.92   14.24
  -3  -7 -19  171.16   12.44
  -3   7  20   25.27    6.33
   3  -7 -20   20.45    6.21
  -3  -7  20   23.77    6.81
   3  -7  20   22.23    6.21
   3  -7 -20   23.89    5.94
  -3  -7 -20   19.91    5.87
  -3  -7 -20   20.97    4.95
  -3   7 -20   24.82    6.62
   3  -7 -21   38.85    7.00
   3  -7 -21   35.52    7.55
  -3  -7  21   39.48    7.68
  -3  -7 -21   35.95    7.12
  -3   7  21   36.26    7.33
  -3   7 -21   36.22    7.29
  -3  -7  22   18.33    5.83
   3  -7 -22   20.42    6.57
   3  -7 -22   22.84    5.84
  -3   7  22   23.13    6.46
  -3  -7 -22   21.15    6.71
  -3   7 -22   22.45    6.66
   3  -7 -23  161.36   14.27
  -3  -7 -23  162.17   15.27
   3  -7 -23  154.37   15.36
  -3   7 -23  162.07   15.46
  -3  -7  23  165.25   15.68
  -3  -7  24    7.77    5.07
   3  -7 -24    3.62    4.43
   3  -7 -24    9.16    4.78
  -3   7 -24    4.68    4.68
  -3  -7 -24   -3.96    3.17
   3  -7 -25   12.31    5.71
  -3  -7  25   15.07    5.71
  -3  -7 -25   13.59    6.02
   3  -7 -25   14.54    5.19
  -3  -7 -26    4.49    4.49
   3  -8   0    0.17    1.89
  -3  -8   0    0.96    3.31
  -3   8   0    2.57    3.54
   3   8   0   -3.69    3.33
  -3   8   0   -2.09    2.94
  -3   8   1   14.75    2.02
   3  -8   1   13.86    3.19
   3  -8  -1   15.79    3.15
  -3   8   1   12.45    1.87
   3   8   1   11.87    3.44
  -3  -8   1   14.34    4.32
   3   8  -1   20.41    4.75
  -3  -8  -1   17.53    4.92
  -3   8  -1   18.34    4.86
  -3   8   1   16.39    3.23
  -3   8   1   14.48    3.74
  -3   8  -1    9.79    2.34
   3  -8   2    2.79    2.68
   3  -8  -2   -0.22    1.40
  -3   8   2   -0.29    0.65
  -3   8   2   -1.32    3.21
  -3  -8   2    0.12    2.98
  -3  -8  -2    1.71    3.48
  -3   8  -2   -2.08    3.90
  -3   8   2    0.90    0.80
  -3   8   2   -0.02    1.69
   3   8   2   -3.60    3.07
  -3   8  -2   -0.11    2.33
   3   8  -2    2.97    2.83
  -3  -8   3   95.68    9.42
  -3   8  -3   88.70    9.25
   3   8  -3  107.07    8.99
  -3  -8  -3   89.75    9.08
  -3   8   3   87.61    8.74
  -3   8   3   94.75    5.94
   3   8   3  103.90    9.12
   3   8  -3   97.43    5.10
  -3   8   3   90.18    3.74
  -3   8  -3  109.80    7.90
  -3  -8  -3   77.54    3.01
  -3   8   3   94.05    7.08
   3  -8   3  106.14    8.35
   3  -8  -3   97.05    6.13
   3   8  -4   44.94    6.79
  -3   8   4   38.96    4.85
  -3  -8   4   29.89    5.90
   3  -8   4   38.26    5.88
  -3   8  -4   39.27    6.99
  -3  -8  -4   44.09    6.65
   3   8   4   34.32    5.83
  -3   8   4   35.32    5.59
   3   8  -4   28.77    3.10
   3  -8  -4   48.21    8.12
  -3   8   4   27.16    1.70
  -3  -8  -4   34.08    2.50
   3  -8  -4   40.18    3.81
   3  -8   5   47.60    6.17
  -3   8   5   38.75    4.94
  -3   8   5   35.83    5.80
  -3   8  -5   45.95    7.49
   3  -8  -5   68.54    9.11
  -3  -8  -5   53.63    7.49
   3   8  -5   50.95    6.81
   3   8  -5   43.58    4.31
  -3  -8   5   41.31    6.62
   3   8   5   45.99    6.67
   3  -8  -5   40.18    3.55
   3  -8   6   57.90    6.85
  -3   8  -6   55.84    8.01
  -3  -8   6   56.40    7.57
   3   8   6   56.48    7.22
   3   8  -6   49.61    6.46
   3  -8  -6   67.77    8.93
   3   8  -6   52.21    4.81
   3   8  -6   56.84    4.05
  -3   8   6   64.47    7.70
   3  -8  -6   58.00    3.83
   3  -8   7    9.28    3.75
   3  -8  -7    7.10    1.31
   3   8   7    2.92    2.91
  -3  -8   7    1.45    4.10
   3   8  -7    6.48    3.64
   3  -8  -7   16.51    6.74
   3   8  -7    7.11    2.23
  -3   8   7   10.71    4.13
  -3  -8   7   23.95    5.48
   3   8   8   70.35    8.06
   3   8  -8   75.33    6.35
   3   8  -8   85.99    8.63
   3  -8  -8   83.67    9.73
  -3  -8   8   75.45    8.72
  -3   8   8   82.25    8.92
  -3  -8   8   90.20    8.82
   3  -8   8   82.23    8.48
  -3  -8   9  138.24   11.50
   3  -8  -9  158.62   13.07
   3   8  -9  136.56   10.79
  -3  -8  -9  148.62   11.56
   3   8   9  140.98   11.26
   3   8  -9  136.98    8.78
  -3  -8   9  150.50   10.91
   3  -8  -9  143.12    9.58
  -3   8   9  147.69   11.61
   3  -8   9  144.62   11.14
  -3   8  10   29.02    5.48
   3  -8  10   24.59    5.43
   3   8 -10   27.16    5.40
   3  -8 -10   29.98    6.42
  -3  -8  10   23.60    4.78
   3   8  10   20.09    4.81
  -3  -8  10   27.33    5.74
  -3  -8 -10   23.19    5.17
   3  -8 -10   24.43    4.79
   3   8 -10   25.07    4.13
   3  -8  11    2.92    3.17
  -3   8  11    3.16    2.62
  -3  -8  11   -1.38    3.68
  -3  -8  11    8.26    3.41
   3   8  11    5.58    3.42
   3   8 -11    4.65    2.75
   3  -8 -11    7.27    3.26
  -3  -8 -11   -1.98    3.13
   3  -8 -11    0.68    3.51
  -3   8  12   24.89    5.38
   3  -8  12   18.26    5.15
  -3  -8  12   15.63    4.66
   3   8  12   15.16    4.11
   3   8 -12   17.53    3.84
  -3  -8 -12   17.62    4.83
  -3  -8  12   19.01    3.99
   3  -8 -12   22.08    6.25
   3  -8 -12   16.82    3.96
   3  -8  13    1.46    3.10
  -3  -8  13    3.85    3.01
  -3   8  13    1.08    3.13
   3   8  13    4.31    2.79
   3   8 -13    3.83    2.78
  -3  -8  13    2.62    2.22
  -3  -8 -13   10.11    4.45
   3  -8 -13   -0.73    3.64
   3  -8 -13   -0.19    2.58
  -3  -8  14   -0.69    3.57
  -3   8  14    3.61    3.38
   3   8  14   -0.42    2.53
  -3  -8  14    0.56    2.58
   3  -8 -14    0.55    2.40
   3  -8 -14   -1.09    3.87
  -3  -8 -14    0.51    3.22
   3  -8  14   -4.64    4.46
   3  -8  15   45.75    7.58
  -3  -8  15   48.13    7.70
  -3   8  15   36.17    6.83
  -3  -8 -15   44.77    7.56
   3   8  15   47.81    7.48
   3  -8 -15   39.22    5.80
   3  -8 -15   47.31    8.44
  -3   8 -15   43.31    6.93
   3  -8 -16   -4.17    3.23
  -3  -8  16   -2.44    4.35
  -3   8  16    2.92    3.62
   3   8  16   -2.22    3.60
   3  -8  16   -2.79    3.18
   3  -8 -16    7.62    4.90
  -3  -8 -16   -2.33    3.46
  -3   8 -16   -3.87    3.20
   3  -8  17   45.69    8.11
   3  -8 -17   56.58    9.00
  -3  -8  17   49.36    8.40
  -3   8  17   49.28    8.04
   3   8  17   52.61    8.43
  -3  -8 -17   47.93    7.59
  -3   8 -17   62.08    8.77
   3  -8 -17   49.53    6.94
  -3  -8  18    5.36    4.24
  -3   8  18    1.96    3.20
   3   8  18    6.52    3.75
   3  -8 -18    3.61    3.00
  -3  -8 -18    6.86    4.24
   3  -8 -18    3.68    4.30
  -3   8 -18    3.83    3.77
   3  -8  18    3.85    3.76
   3  -8 -19   12.53    4.58
  -3  -8  19    3.34    3.02
  -3   8 -19    6.59    4.13
   3  -8  19   11.24    5.31
  -3   8  19    4.19    3.57
   3  -8 -19    3.16    4.50
   3   8  19    4.20    2.95
  -3  -8 -19    4.01    3.99
   3   8  20   10.10    4.97
  -3  -8 -20   13.52    5.09
   3  -8  20    7.85    5.01
  -3  -8  20    9.27    5.06
  -3   8  20   13.87    4.95
   3  -8 -20   18.22    4.89
   3  -8 -20   18.08    6.03
  -3   8 -20    7.10    4.06
   3  -8 -21   -1.30    3.52
  -3  -8  21   -0.96    3.53
   3   8  21   -3.46    4.10
  -3  -8 -21   -1.09    3.16
  -3   8 -21    1.09    3.61
  -3   8  21    0.43    2.99
   3  -8  21    2.08    4.42
  -3  -8  22    0.54    3.28
  -3   8  22    3.49    3.89
   3  -8 -22   -0.86    2.98
  -3  -8 -22    3.92    4.02
  -3   8 -22    1.44    3.73
   3  -8  22    4.79    4.87
  -3  -8  23    1.63    3.67
  -3   8  23    6.75    4.73
   3  -8 -23   -0.81    4.12
  -3   8 -23   -0.12    3.46
  -3  -8 -23   -2.05    3.11
  -3  -8 -24    4.05    4.28
   3  -8 -24   15.45    6.50
  -3  -8 -25    1.32    3.62
   3  -9   0    3.87    2.89
  -3   9   0    2.40    3.31
  -3  -9   0    1.09    3.57
  -3   9   0    0.39    1.67
   3   9   0   -7.01    4.53
  -3  -9   1  547.60   22.10
  -3  -9  -1  557.27   22.21
  -3   9  -1  532.41   22.27
  -3   9   1  521.99   22.07
   3   9  -1  545.51   21.26
   3   9   1  534.37   21.34
  -3   9  -1  555.73   16.62
  -3   9   1  539.69   11.20
  -3   9   1  534.15   16.36
   3  -9   1  545.36   18.02
   3  -9  -1  550.63   17.01
   3   9  -2   73.95    8.05
   3  -9  -2   67.86    6.00
  -3  -9   2   63.69    8.05
  -3  -9  -2   69.08    8.12
   3   9   2   71.85    8.15
  -3   9  -2   72.12    8.50
  -3   9  -2   65.03    5.76
  -3   9   2   62.31    7.88
  -3   9   2   71.81    6.14
   3  -9   2   68.60    7.20
   3  -9   3    2.89    2.95
   3  -9  -3    0.39    1.54
  -3   9   3   -2.98    2.81
  -3  -9   3   -4.01    4.32
  -3  -9  -3    2.05    3.57
  -3   9  -3   -6.16    4.50
  -3   9   3  -13.69    5.73
   3   9   3   -2.49    3.17
   3   9  -3    4.43    1.48
  -3   9  -3   -3.41    2.58
   3   9  -3   -3.53    3.71
  -3   9  -4  185.75   10.23
  -3   9  -4  181.23   13.50
   3   9  -4  186.12   12.82
  -3  -9  -4  196.40   13.45
  -3  -9   4  159.12   12.17
  -3   9   4  175.85   12.92
   3  -9  -4  179.84    8.48
   3   9  -4  174.44    6.97
   3   9   4  186.42   12.97
  -3   9   4  177.57    9.90
   3  -9   4  187.95   11.74
  -3  -9   5  814.91   27.74
  -3   9  -5  810.27   28.18
   3   9  -5  784.95   25.76
  -3  -9  -5  767.23   26.24
   3   9   5  801.99   26.65
  -3   9   5  766.54   27.16
   3   9  -5  787.60   16.27
   3  -9   5  821.18   24.78
   3  -9  -5  776.54   16.57
  -3  -9   6  226.90   15.06
  -3   9  -6  209.89   15.18
   3   9  -6  225.64   14.31
  -3  -9  -6  217.86   14.31
  -3   9   6  215.04   14.57
   3   9  -6  201.46    8.91
   3   9   6  227.36   14.81
   3  -9   6  240.96   14.10
  -3  -9   7  116.26   11.28
  -3   9  -7  153.16   12.81
   3   9   7  104.83   10.39
  -3  -9  -7  127.20   10.94
   3  -9  -7  135.33   12.71
  -3   9   7  128.21   11.30
   3   9  -7  117.65   10.31
   3   9  -7  119.98    7.33
   3  -9   7  118.24   10.16
  -3  -9   8  110.87   11.22
  -3   9  -8  139.90   12.60
   3   9  -8  104.62   10.23
  -3  -9   8  109.55   10.17
   3  -9  -8  129.66   12.40
   3   9  -8  102.21    7.19
  -3   9   8  105.85   10.64
   3   9   8   92.63    9.82
   3  -9   8   98.58    9.89
  -3  -9   9  329.01   18.52
   3   9  -9  309.22   17.01
   3  -9  -9  332.24   19.23
   3   9  -9  295.38   12.79
  -3   9   9  323.12   18.02
   3   9   9  296.86   17.22
  -3  -9   9  288.46   16.21
   3  -9   9  299.95   16.92
  -3  -9  10  154.91   13.29
   3   9 -10  162.25   12.69
   3  -9 -10  174.11   14.37
   3   9 -10  150.62    9.66
  -3   9  10  154.99   12.78
  -3  -9  10  150.08   11.80
   3   9  10  161.74   13.02
   3  -9  10  165.56   12.95
   3  -9  11   47.43    7.52
  -3   9  11   44.46    7.12
   3  -9 -11   56.89    8.76
  -3  -9  11   51.73    7.09
   3  -9 -11   60.24    6.69
  -3  -9  11   47.47    7.64
   3   9  11   46.82    7.29
   3   9 -11   48.26    7.53
   3   9 -11   46.20    5.75
   3  -9  12   11.27    4.68
  -3   9  12   -0.82    3.72
  -3  -9  12    0.21    4.00
  -3  -9  12    7.27    3.55
   3   9 -12    8.19    4.14
   3   9  12    6.59    3.51
   3   9 -12    5.70    2.67
   3  -9 -12    7.33    3.10
  -3  -9 -12    5.89    3.33
   3  -9 -12    7.75    4.56
  -3  -9  13   94.02   10.78
   3   9 -13   98.32   10.60
   3  -9 -13  108.61   12.08
   3   9  13   88.92   10.33
   3   9 -13   94.15    8.57
   3  -9 -13   98.84    8.60
  -3  -9 -13   97.79   10.44
  -3  -9  13  108.47    9.61
  -3   9  13   95.23   10.55
   3  -9  13   90.46   10.32
   3  -9  14   54.07    8.42
  -3  -9  14   60.05    9.14
  -3   9  14   53.91    8.40
   3  -9 -14   48.68    6.33
   3  -9 -14   52.99    8.69
   3   9  14   52.00    8.41
   3   9 -14   56.93    7.09
  -3  -9  14   49.22    6.65
  -3  -9 -14   53.86    8.22
   3  -9  15   12.61    5.24
  -3  -9  15    4.23    4.01
  -3   9  15   10.39    4.44
   3   9  15    6.89    3.97
   3   9 -15    1.72    2.25
   3  -9 -15   19.24    6.74
  -3  -9 -15    4.95    4.32
  -3  -9 -16  175.13   14.68
  -3  -9  16  175.60   15.17
   3  -9 -16  193.72   16.60
   3   9 -16  169.74   12.77
  -3   9 -16  177.60   14.43
  -3   9  16  173.63   14.90
   3  -9  16  175.58   15.23
   3   9  16  172.59   15.02
  -3  -9  17  122.24   13.09
   3   9  17  120.69   12.94
  -3   9  17  113.13   12.40
   3  -9 -17  137.77   14.07
  -3  -9 -17  117.85   12.29
  -3   9 -17  124.08   12.36
   3  -9  17  126.90   13.09
   3  -9  18    2.28    4.61
   3  -9 -18    1.77    3.81
  -3   9  18    1.94    3.77
   3   9  18    6.75    4.83
  -3   9 -18    5.38    4.34
  -3  -9 -18   -1.80    3.16
  -3  -9  18    4.90    4.14
  -3  -9  19   86.85   11.48
   3   9  19  108.93   12.89
  -3  -9 -19   90.96   11.18
   3  -9 -19   88.92   11.89
  -3   9 -19   88.79   11.13
   3  -9  19   85.99   11.68
  -3   9  19   79.29   10.84
   3   9  20   74.91   10.93
  -3   9  20   76.83   10.74
  -3  -9  20   66.87   10.60
   3  -9 -20   77.77   11.50
   3  -9  20   68.36   10.68
  -3  -9 -20   77.40   10.73
  -3   9 -20   64.98    9.97
  -3  -9  21   29.72    7.15
   3  -9 -21   38.84    8.91
  -3   9  21   31.99    7.52
   3   9  21   34.90    7.95
  -3  -9 -21   32.58    7.53
  -3   9 -21   34.68    7.59
   3  -9  21   28.21    6.88
   3  -9 -22    0.09    3.21
  -3   9  22    2.90    4.21
  -3  -9 -22   -0.19    3.40
  -3   9 -22   -5.88    5.14
  -3  -9 -23  126.86   14.11
  -3  -9 -24   22.50    6.72
  -3  10   0   -0.60    2.94
  -3  10   0   -0.17    1.78
  -3 -10   0   -1.65    4.14
   3  10   0   -1.10    2.86
   3 -10   0    1.20    2.27
  -3  10  -1    9.05    2.91
  -3  10  -1   12.75    5.51
  -3  10   1   10.07    2.59
   3 -10  -1    5.15    2.45
   3 -10   1    5.77    2.74
  -3 -10   1    8.76    3.14
  -3 -10  -1   11.80    4.26
   3  10  -1    6.97    3.88
   3  10   1    2.10    3.45
  -3  10   1    7.71    3.72
   3 -10   2    4.58    2.93
   3 -10  -2    1.41    1.88
  -3  10   2    0.96    1.58
  -3  10   2    3.72    3.66
  -3 -10   2   -1.72    4.35
   3  10   2   -4.02    3.90
  -3 -10  -2   -2.44    3.92
   3  10  -2   -3.74    3.20
  -3  10  -2   11.43    5.31
  -3  10  -2   -1.52    2.09
   3 -10   3   15.18    3.86
   3 -10  -3   13.61    3.10
  -3  10   3   16.36    3.26
  -3 -10   3   13.77    4.23
  -3 -10  -3   17.34    4.78
  -3  10  -3   28.09    6.26
   3  10  -3    4.59    2.93
  -3  10   3    7.03    3.46
   3  10   3   14.19    4.29
  -3  10  -3   18.82    3.29
   3 -10   4   11.35    4.00
  -3 -10   4    5.05    3.86
  -3 -10  -4    6.48    3.83
  -3  10  -4   -0.69    5.00
   3  10  -4   11.13    4.35
  -3  10   4    4.61    3.46
   3  10   4    3.94    2.64
  -3  10  -4    6.14    2.29
   3 -10   5    2.06    2.73
  -3 -10   5   -1.37    3.72
  -3 -10  -5    0.64    3.30
  -3  10  -5   -2.54    3.54
  -3  10   5   -4.45    4.04
  -3  10  -5    5.12    2.49
   3  10   5   -3.35    3.33
   3  10  -5    2.43    3.45
   3 -10   6    1.98    2.72
  -3 -10   6    3.91    4.16
  -3  10  -6   12.15    5.62
  -3 -10  -6    7.55    4.35
   3  10  -6   15.22    5.03
  -3  10   6   20.09    6.12
  -3  10  -6    8.21    3.57
   3  10   6    4.93    3.65
   3  10   7   41.41    7.10
   3 -10   7   36.34    6.42
  -3 -10   7   27.49    6.37
  -3 -10  -7   38.87    6.70
   3  10  -7   41.02    7.02
  -3  10   7   39.51    6.97
  -3  10  -7   35.83    7.29
   3 -10   8  130.04   11.28
  -3 -10   8  113.66   11.67
  -3  10  -8  121.27   12.43
   3  10  -8  115.89   11.07
   3  10   8  126.30   11.91
  -3 -10  -8  126.29   11.09
  -3  10   8  120.86   12.01
  -3 -10   8  111.06   10.68
   3 -10   9   49.94    7.38
   3  10   9   51.52    7.86
  -3 -10   9   38.94    6.80
   3  10  -9   35.00    6.63
  -3 -10  -9   43.18    7.05
  -3  10  -9   46.83    8.08
  -3  10   9   47.46    7.75
  -3 -10   9   46.70    7.10
   3 -10  10   48.91    7.47
   3  10  10   43.79    7.40
  -3 -10  10   46.18    7.56
  -3  10 -10   60.08    9.22
   3  10 -10   55.87    8.22
  -3 -10 -10   51.96    7.20
  -3 -10  10   53.89    7.65
  -3  10  10   46.22    7.69
  -3  10  11   -3.57    4.22
   3 -10  11    3.12    3.50
  -3 -10  11   -0.16    2.30
  -3 -10  11   -4.99    4.25
   3  10  11   -4.02    4.09
   3  10 -11    5.04    3.67
   3 -10  12   -1.00    3.44
  -3  10  12   -1.93    3.81
  -3 -10  12   -1.46    2.35
   3  10  12    0.99    2.69
   3  10 -12    3.98    3.34
  -3 -10  12   -4.34    3.89
   3 -10 -12    7.90    6.33
   3 -10  13   -1.52    3.41
  -3  10  13    5.94    3.80
   3  10 -13   12.93    5.36
  -3 -10  13    2.54    2.25
   3  10  13    0.74    3.16
  -3 -10  13    3.82    3.68
   3 -10 -13   16.77    6.86
   3 -10  14   20.00    5.69
  -3 -10  14   20.18    5.36
  -3  10  14   13.87    4.46
   3  10 -14   25.24    6.27
   3  10  14   14.88    5.03
   3 -10 -14   30.81    7.66
   3 -10  15    3.93    3.57
   3 -10 -15    8.73    5.48
   3  10 -15    6.26    4.49
  -3 -10  15    1.09    3.31
  -3  10  15    0.05    3.42
   3  10  15   -0.78    3.47
  -3 -10 -15    1.94    3.14
  -3 -10  16   24.55    6.28
  -3  10  16   21.20    5.44
   3  10  16   18.70    5.27
   3 -10 -16   32.65    8.63
  -3 -10 -16   24.11    6.19
   3 -10  16   30.05    7.08
   3 -10  17   17.71    6.58
  -3 -10  17   17.92    5.96
  -3  10  17   16.69    5.17
   3  10  17   16.34    5.76
   3 -10 -17   27.67    7.66
  -3 -10 -17   18.64    5.73
  -3  10 -17   10.85    4.53
   3 -10  18   40.76    8.78
   3 -10 -18   38.59    8.49
  -3  10  18   27.28    6.97
   3  10  18   33.94    7.52
  -3 -10  18   35.73    7.96
  -3 -10 -18   35.43    7.33
  -3  10 -18   30.12    6.76
  -3 -10  19    9.37    4.74
  -3  10  19    0.26    2.53
   3  10  19    5.38    3.89
   3 -10 -19   11.67    5.97
  -3 -10 -19    9.14    4.49
  -3  10 -19    2.02    3.77
   3 -10  19   11.92    5.35
  -3  10  20    8.73    4.50
   3 -10 -20   23.04    7.52
   3  10  20   12.63    5.94
  -3  10 -20    8.40    4.26
  -3 -10 -20    8.47    4.89
  -3 -10 -21    5.60    3.71
  -3  10 -21    1.04    3.30
  -3 -10 -22   10.91    4.91
  -3 -11   0   -0.57    3.45
   3  11   0   -6.04    4.44
   3 -11   0    1.78    2.53
  -3  11   0   -3.56    3.73
  -3 -11   1   21.38    5.38
   3 -11   1   25.56    4.67
   3 -11  -1   27.58    4.49
  -3 -11  -1   17.36    4.15
  -3  11  -1   19.01    5.36
   3  11  -1   16.72    4.55
   3  11   1   18.92    4.90
  -3  11   1   18.63    5.45
  -3 -11   2  142.67   12.80
  -3 -11  -2  151.15   12.92
  -3  11  -2  151.22   13.60
   3  11  -2  151.27   12.70
  -3  11   2  151.42   13.50
   3  11   2  143.22   12.68
   3 -11   2  162.29   11.38
   3 -11   3   26.37    5.29
  -3 -11   3   17.01    5.09
  -3 -11  -3   20.93    5.11
  -3  11  -3   31.16    7.14
   3  11  -3   17.96    5.02
  -3  11   3   21.65    5.26
   3  11   3   23.24    5.90
  -3 -11   4   37.67    6.97
  -3 -11  -4   30.86    6.34
  -3  11   4   23.80    6.12
  -3  11  -4   30.55    7.17
   3 -11   4   30.29    5.49
   3  11   4   34.10    6.69
   3  11  -4   21.73    5.55
   3 -11   5   31.39    5.92
  -3 -11   5   28.16    5.75
  -3 -11  -5   41.67    7.19
  -3  11  -5   35.08    7.18
   3  11  -5   34.39    6.54
  -3  11   5   22.40    5.33
   3  11   5   31.50    6.48
  -3 -11  -6   72.73    9.12
  -3 -11   6   71.13    9.51
  -3  11  -6   68.58    9.69
  -3  11   6   69.04    9.41
   3  11  -6   82.10   10.01
   3  11   6   76.64    9.72
   3 -11   6   76.95    8.77
   3  11   7   -2.30    2.90
   3 -11   7    1.72    3.12
  -3 -11   7   -4.58    4.53
  -3 -11  -7    0.54    3.30
  -3  11  -7    1.65    4.01
  -3  11   7    3.14    4.17
   3  11  -7    5.55    4.33
   3  11   8    2.09    3.41
   3 -11   8   -1.63    3.09
  -3 -11   8   -4.67    4.89
  -3  11  -8    3.87    4.02
  -3 -11  -8    6.70    3.90
  -3  11   8   -0.75    2.92
   3  11  -8    1.59    3.78
  -3 -11   8    2.88    2.45
   3 -11   9    1.20    2.97
   3  11   9    6.07    4.04
  -3 -11   9    0.98    3.94
  -3  11  -9    1.41    3.21
  -3 -11  -9    6.26    3.52
   3  11  -9    1.56    3.24
  -3  11   9    1.79    2.56
  -3 -11   9    3.25    3.14
  -3 -11  10    8.53    4.07
   3 -11  10    4.10    2.61
   3  11  10    6.57    4.26
  -3 -11  10    5.73    3.83
  -3  11 -10   12.51    5.15
  -3 -11 -10   13.71    4.46
   3  11 -10    2.28    3.18
  -3  11  10   11.47    4.53
  -3  11  11    0.70    3.57
   3 -11  11    4.40    4.03
  -3 -11  11    2.87    2.69
   3  11  11    1.23    2.98
  -3 -11  11    5.96    5.19
  -3  11 -11   13.27    6.40
   3  11 -11    5.22    3.70
  -3 -11 -11    3.09    3.47
  -3 -11  12  202.01   16.59
  -3  11 -12  215.53   17.61
   3  11 -12  180.82   15.41
  -3 -11 -12  205.83   14.68
  -3  11  12  196.92   16.37
  -3 -11  12  219.00   15.04
   3  11  12  206.58   16.67
   3 -11  12  216.31   16.39
   3 -11  13   13.63    5.74
  -3  11  13    6.98    4.68
  -3  11 -13   15.41    6.22
  -3 -11  13    2.13    3.46
   3  11  13    3.13    3.37
   3  11 -13    6.19    4.57
  -3 -11 -13    4.70    3.57
  -3 -11  14   31.52    7.34
  -3  11  14   31.88    7.37
   3  11  14   33.73    7.34
   3  11 -14   30.89    6.99
  -3 -11 -14   34.03    6.82
   3 -11  14   30.48    6.98
   3 -11  15   14.76    5.38
  -3 -11  15    8.52    4.97
   3  11 -15   16.33    5.59
   3  11  15    5.45    4.59
  -3  11  15   11.46    4.74
   3 -11  16   15.76    6.00
  -3 -11  16   10.56    4.88
  -3  11  16    9.46    4.49
   3  11 -16   16.12    5.40
   3  11  16   13.10    5.07
  -3 -11  17    2.78    4.46
   3  11 -17    0.06    3.39
  -3  11  17    0.13    2.57
   3  11  17    0.79    3.53
   3 -11  17    0.62    3.30
  -3  11 -17    0.35    2.77
  -3  11  18    4.08    4.15
   3  11  18    0.34    3.29
   3  11 -18    5.52    4.47
   3 -11  18    8.49    5.36
  -3  11 -18   -0.91    3.27
   3  11 -19   28.79    7.40
  -3 -11 -19   17.80    5.29
  -3  11 -19   21.92    6.11
  -3  11 -20   69.79   10.46
  -3  12   0   -0.44    2.91
  -3 -12   0    1.07    3.09
   3  12   0   -3.64    4.18
   3 -12   1   16.53    4.27
  -3 -12   1   12.28    4.81
  -3 -12  -1   15.89    5.45
  -3  12   1   20.61    5.91
  -3  12  -1    6.20    3.51
   3  12  -1   12.61    4.24
   3  12   1   12.11    4.41
   3 -12   2   14.33    3.69
  -3  12  -2    6.09    4.69
  -3  12   2   13.50    4.97
  -3 -12   2   11.74    4.82
  -3 -12  -2    6.14    4.02
   3  12  -2    9.97    4.11
   3  12   2   12.43    4.80
  -3  12  -3    6.74    4.18
   3 -12   3    5.68    3.04
  -3 -12   3   -0.46    3.87
  -3 -12  -3    1.51    2.87
  -3  12   3   -2.43    3.82
   3  12  -3    3.16    3.92
   3  12   3    3.68    4.09
   3 -12   4    1.47    2.81
  -3 -12   4    0.38    3.34
  -3 -12  -4   -1.66    3.34
  -3  12  -4    3.06    3.79
  -3  12   4   -3.53    4.35
   3  12  -4    0.36    3.10
   3  12   4    3.80    3.69
   3 -12   5    3.02    3.02
  -3 -12   5   -0.53    2.85
   3  12  -5    1.85    3.92
  -3 -12  -5    2.44    3.91
  -3  12  -5    4.88    4.24
   3  12   5    1.11    3.15
  -3  12   5   -1.77    3.32
   3 -12   6    7.38    3.69
  -3 -12   6    6.15    4.54
  -3 -12  -6    2.52    3.06
  -3  12  -6    4.41    3.44
  -3  12   6    2.32    3.22
   3  12  -6    4.12    3.03
   3  12   6   -0.25    2.91
   3 -12   7    2.51    2.65
  -3 -12   7    0.48    3.58
  -3 -12  -7    3.18    3.11
  -3  12  -7    3.99    3.80
   3  12  -7    8.98    4.52
  -3  12   7    4.26    3.42
   3  12   7    4.13    3.43
   3 -12   8    0.44    3.04
  -3 -12   8   -3.75    4.68
  -3 -12  -8   -2.51    2.97
  -3  12  -8   -3.08    3.60
   3  12  -8    7.62    4.06
   3  12   8   -1.26    3.26
  -3  12   8    0.98    3.15
   3 -12   9   13.25    4.75
   3  12   9   18.48    5.71
  -3 -12   9   10.88    4.66
  -3 -12  -9   14.32    4.60
  -3  12  -9   19.71    6.20
   3  12  -9   16.96    5.50
  -3  12   9   18.82    5.37
  -3 -12   9   15.61    4.97
  -3 -12  10   13.40    4.69
   3 -12  10    6.47    3.61
   3  12  10   11.68    4.96
  -3 -12  10   15.00    5.43
  -3  12 -10    9.53    5.35
  -3 -12 -10   12.57    4.71
   3  12 -10   14.70    4.79
  -3  12  10   11.47    4.60
  -3  12  11   -1.57    3.11
   3 -12  11    1.96    3.18
   3  12  11   -2.55    3.31
  -3 -12  11    5.35    4.17
  -3  12 -11    5.06    4.71
  -3 -12 -11   -1.59    3.17
   3  12 -11   -1.93    3.66
  -3 -12  11    4.12    3.83
   3 -12  12   16.56    5.55
  -3  12  12   16.74    5.72
  -3 -12  12   18.81    5.83
   3  12  12   10.24    4.68
  -3  12 -12   16.19    6.14
  -3 -12 -12    9.31    4.01
   3  12 -12   21.43    6.35
   3 -12  13    8.40    4.62
  -3  12  13   -1.03    3.06
  -3 -12  13    2.44    4.88
   3  12  13   -0.43    3.76
  -3  12 -13    0.79    4.34
   3  12 -13   -4.12    3.23
  -3 -12 -13    0.62    2.96
   3 -12  14   11.57    5.38
  -3  12  14    3.81    3.64
  -3 -12  14    5.28    3.99
  -3  12 -14    7.42    5.69
   3  12  14   14.68    5.79
   3  12 -14    0.82    3.54
  -3 -12 -14    5.67    3.63
   3 -12  15    5.89    4.21
  -3  12  15    1.42    3.09
   3  12  15   -0.48    3.61
   3  12 -15   -3.10    4.12
   3 -12  16    4.04    4.83
   3  12 -16    9.48    4.72
   3  12 -17   50.59    9.37
  -3  12 -17   49.01    8.71
   3  12 -18   13.12    5.66
  -3  12 -18   -1.50    3.55
  -3 -13   0    8.26    4.70
  -3  13   0    8.04    4.52
   3  13   0   -1.40    3.73
  -3 -13  -1  113.27   12.33
  -3  13   1   70.86   10.51
  -3  13  -1   81.25   11.28
  -3 -13   1   80.79   10.52
   3  13  -1   86.47   11.17
   3  13   1   81.36   10.66
  -3 -13   2   94.71   11.70
  -3 -13  -2   96.65   11.43
  -3  13  -2   91.91   11.85
   3  13  -2   88.00   11.16
   3  13   2   89.68   11.24
  -3  13   2   82.58   11.24
  -3 -13   3    4.33    3.95
  -3 -13  -3    6.70    4.24
   3  13  -3   -0.49    3.51
  -3  13  -3    3.89    4.54
   3  13   3    1.35    3.59
  -3  13   3   -2.25    4.08
  -3 -13   4   35.54    7.63
  -3 -13  -4   30.32    6.89
   3 -13   4   40.22    6.82
  -3  13  -4   44.65    8.95
   3  13  -4   32.51    7.14
  -3  13   4   25.92    6.37
   3  13   4   35.51    7.43
   3 -13   5   55.70    8.03
  -3 -13   5   59.34    9.76
  -3 -13  -5   40.09    7.54
  -3  13   5   60.33    9.65
  -3  13  -5   52.81    9.51
   3  13  -5   47.19    8.36
   3  13   5   42.33    8.02
  -3 -13   6    0.52    2.99
  -3 -13  -6   -0.75    3.13
   3 -13   6    0.21    2.60
  -3  13  -6    3.13    4.49
   3  13  -6   -2.78    3.37
  -3  13   6    7.67    4.98
   3  13   6   -1.70    2.61
   3  13   7    9.14    4.47
   3 -13   7    3.50    2.95
  -3 -13   7    9.82    4.87
  -3 -13  -7    1.45    3.02
  -3  13  -7   13.21    6.07
   3  13  -7   11.28    4.75
  -3  13   7   12.82    5.06
   3  13   8   13.66    4.42
   3  13  -8   20.05    6.29
  -3 -13   8   18.30    5.99
  -3 -13  -8   13.07    4.55
  -3  13  -8   14.92    5.74
   3 -13   8   20.46    5.36
  -3  13   8   14.50    5.73
   3  13   9   50.59    8.99
  -3 -13   9   52.92    9.12
  -3 -13  -9   52.66    8.54
  -3  13  -9   50.14    9.25
   3  13  -9   62.90    9.82
   3 -13   9   50.55    8.33
  -3  13   9   51.55    9.31
  -3 -13   9   46.27    7.85
  -3 -13  10    6.99    4.25
   3 -13  10   -2.82    3.40
   3  13  10   -3.04    3.80
  -3 -13  10    7.23    5.10
  -3 -13 -10    2.92    3.77
  -3  13 -10    5.69    4.65
   3  13 -10    3.91    3.75
  -3  13  10    1.93    2.64
   3 -13  11   32.02    6.62
   3  13  11   24.54    6.42
  -3 -13  11   26.19    7.11
  -3 -13 -11   19.48    5.15
   3  13 -11   40.28    8.22
  -3  13  11   39.63    8.51
   3 -13  12    7.49    4.15
  -3  13  12    5.86    3.92
   3  13  12    7.41    4.27
   3  13 -12   15.58    5.40
   3  13 -13   75.65   11.11
   3 -13  13   86.54   11.59
   3 -13  14    0.19    3.03
   3  13 -14   -2.01    3.55
   3  13 -15    4.38    4.10
  -3 -14   0   -0.02    3.65
  -3  14   0    0.12    3.22
   3  14   0   -4.23    3.26
  -3 -14   1   13.20    5.60
  -3 -14  -1   14.50    5.68
  -3  14   1   11.60    4.89
   3  14  -1   11.44    5.42
   3  14   1   17.16    6.52
  -3  14  -1   16.49    6.16
  -3 -14   2    2.49    2.94
  -3  14  -2    3.85    3.46
  -3 -14  -2    2.64    4.19
   3  14  -2   -2.43    4.18
   3  14   2   -0.36    3.11
  -3  14   2    4.83    4.07
  -3 -14   3   -1.36    3.53
  -3 -14  -3    3.39    4.06
  -3  14  -3   -0.63    3.20
   3  14  -3    2.77    3.75
  -3  14   3    0.08    4.23
   3  14   3   -1.84    4.04
   3  14   4    3.24    3.82
  -3 -14   4   -2.49    3.28
  -3 -14  -4    3.42    3.65
  -3  14   4    4.48    4.25
  -3  14  -4    5.17    4.67
   3  14  -4   -0.08    4.10
  -3 -14   5    6.87    5.05
  -3 -14  -5    9.29    5.13
   3  14  -5   10.58    5.25
  -3  14   5    7.21    4.56
   3  14   5    1.42    3.90
   3  14  -6   27.79    7.10
  -3 -14   6   18.88    6.09
  -3 -14  -6   20.47    6.04
   3  14   6   17.54    5.74
   3  14   7    8.17    5.10
  -3 -14   7    7.48    4.89
  -3 -14  -7   14.89    5.62
   3  14  -7    4.73    3.09
   3 -14   7   13.83    4.89
   3 -14   8    3.25    3.56
   3  14   8    2.93    3.97
  -3 -14  -8    6.23    4.10
   3  14  -8   -0.08    3.80
  -3 -14   8    6.33    4.26
   3 -14   9   -2.80    3.62
  -3 -14  -9    3.18    3.47
   3  14  -9    2.84    3.99
   3 -14  10    5.70    3.74
   3  14 -10    8.00    4.45
   3 -14  11   -2.26    3.44
   3  14 -11   -1.52    4.01
  -3 -15   0    3.84    4.01
  -3 -15   1   18.20    6.42
  -3 -15  -1   15.46    5.98
  -3 -15  -2   98.45   12.35
  -3 -15  -3   14.00    5.56
  -3 -15  -4   45.89    8.73
  -3 -15  -5    1.53    3.87
  -3 -15  -6   73.84   10.68
   4   0   0 6913.02   48.81
  -4   0   0 6692.81   55.45
  -4   0   0 6688.02   48.27
   4   0   1    7.58    2.36
  -4   0  -1    1.66    0.95
   4   0  -1    1.30    1.60
  -4   0  -1    3.74    2.81
  -4   0   1    9.89    3.81
  -4   0  -2  523.62   14.39
  -4   0  -2  533.17   15.61
   4   0  -2  557.15   16.20
   4   0  -2  549.20   13.42
   4   0   2  560.27   14.54
  -4   0   2  525.45   15.77
   4   0  -3    2.35    3.12
   4   0  -3    0.75    1.32
   4   0   3    0.79    1.29
  -4   0  -3    2.43    2.14
  -4   0  -3    2.81    2.79
  -4   0   3   -5.40    3.51
   4   0  -4  524.75   16.07
  -4   0  -4  527.80   16.42
   4   0  -4  506.94   13.16
   4   0   4  526.24   14.73
  -4   0  -4  514.00   15.05
  -4   0   4  508.32   16.02
  -4   0   5    3.79    3.10
   4   0  -5   -4.03    4.02
  -4   0   5    0.48    1.48
   4   0   5   -1.99    1.65
   4   0  -5    0.75    0.57
  -4   0  -5    1.39    3.06
  -4   0  -5    4.21    2.76
  -4   0  -5   -1.02    2.10
   4   0  -6   70.71    3.41
  -4   0  -6   73.95    5.18
  -4   0   6   69.61    4.79
   4   0  -6   59.72    5.74
  -4   0  -6   76.04    6.52
  -4   0   6   77.76    6.66
  -4   0  -6   76.81    5.41
  -4   0  -6   75.55    6.84
   4   0  -7    0.45    0.90
  -4   0   7    0.45    2.33
  -4   0  -7    1.38    1.70
   4   0  -7    8.11    4.08
  -4   0   7    4.09    1.84
  -4   0  -7    2.08    3.17
  -4   0  -7    0.51    2.58
  -4   0   8  388.26   11.33
  -4   0  -8  377.89   14.83
   4   0  -8  406.85   15.49
   4   0  -8  375.36    9.69
  -4   0   8  368.75   14.83
  -4   0  -8  374.05   11.80
  -4   0  -8  401.35   15.51
  -4   0   9   -0.84    2.77
   4   0  -9   -1.25    1.36
  -4   0   9    0.52    1.69
  -4   0  -9    0.15    1.41
   4   0  -9   -1.02    2.24
  -4   0  -9   -2.03    2.41
  -4   0  -9   -2.28    3.25
  -4   0  10  235.75    9.38
  -4   0 -10  236.19   12.78
  -4   0 -10  265.16   13.00
   4   0 -10  241.26    9.15
  -4   0 -10  237.74    9.42
   4   0 -10  243.68   12.89
  -4   0  11    3.07    1.91
  -4   0 -11    1.04    3.45
   4   0 -11    1.58    1.56
  -4   0 -11    2.04    1.96
   4   0 -11    4.87    3.75
  -4   0 -11   -1.18    2.79
  -4   0  12  190.47    9.00
   4   0 -12  177.29   11.81
  -4   0 -12  202.18   12.63
  -4   0 -12  183.37   11.74
  -4   0 -12  180.05    8.23
  -4   0 -13    7.58    5.50
  -4   0  13   -0.83    1.70
  -4   0 -13    2.61    2.23
   4   0 -13    4.50    5.19
  -4   0 -13    2.27    5.26
  -4   0  14 1770.94   29.07
  -4   0 -14 1832.80   39.31
   4   0 -14 1876.12   38.97
  -4   0 -14 1791.21   38.20
  -4   0 -14 1750.51   25.16
  -4   0  15    6.63    3.28
  -4   0 -15    6.64    2.93
  -4   0 -15   30.68    8.97
   4   0 -15   18.74    7.47
  -4   0 -15   30.82    7.56
  -4   0 -16  322.75   10.51
   4   0 -16  316.43   17.24
  -4   0  16  301.53   12.71
  -4   0 -16  316.73   17.30
  -4   0  17   -0.78    2.39
  -4   0 -17   -0.68    1.24
   4   0 -17   -3.44    4.18
  -4   0 -17   -4.32    3.80
  -4   0  18   45.19    5.27
   4   0 -18   46.81    6.83
  -4   0 -18   53.07    7.62
  -4   0  19    6.55    3.20
   4   0 -19    4.48    3.41
  -4   0 -19   -1.36    3.70
   4   0 -20   43.03    7.29
  -4   0 -20   46.62    7.71
  -4   0  20   44.77    5.72
  -4   0  21   -1.10    2.02
   4   0 -21    1.14    3.61
  -4   0 -21    1.87    3.68
   4   0 -22   52.99    8.64
  -4   0 -22   52.81    8.68
  -4   0  22   59.74    6.90
   4   0 -23   -4.27    3.92
  -4   0 -23   -0.73    3.35
   4   0 -24    7.19    4.49
  -4   0 -24    8.03    5.26
   4   0 -25   -1.22    4.56
  -4   0 -25   -3.59    4.80
   4   0 -25    1.30    3.51
   4   0 -26    1.04    3.93
  -4   0 -26   -1.91    3.67
   4   0 -26    2.03    3.59
   4   0 -27   -0.56    3.71
   4   0 -28   37.41    7.45
   4   0 -29    2.78    3.72
  -4   1   0  200.34    5.56
   4   1   0  211.15    9.21
   4  -1   0  219.05    9.32
  -4   1   0  217.70   10.62
  -4   1   0  204.01    8.00
  -4  -1   0  215.90   10.01
   4  -1   0  210.49    7.92
  -4  -1   0  207.62   10.09
   4  -1  -1  445.90   11.16
  -4  -1  -1  444.45   13.65
  -4   1   1  428.24    7.48
  -4   1  -1  445.71   12.01
   4  -1  -1  468.27   13.59
   4   1  -1  485.27   13.80
   4  -1   1  466.01   12.06
  -4   1  -1  460.35   13.97
  -4   1   1  464.09   15.14
  -4  -1   1  448.21   14.22
  -4  -1  -1  452.73    7.60
  -4  -1  -1  464.95   14.51
   4   1  -2  235.48   10.60
  -4   1  -2  256.46    9.42
  -4   1   2  243.68   10.88
   4   1  -2  266.54   10.12
  -4   1   2  239.82    5.34
   4  -1  -2  257.67    9.96
  -4   1  -2  248.67   10.42
   4  -1  -2  259.95   11.46
   4  -1   2  256.79    9.27
  -4  -1  -2  255.82   10.55
   4  -1  -2  246.01    8.24
  -4  -1  -2  243.37    6.64
  -4  -1   2  236.42   10.34
  -4  -1  -2  247.28   10.63
   4  -1  -3   75.13    5.52
   4   1  -3   70.52    6.29
   4  -1  -3   83.31    7.08
  -4   1  -3   77.97    6.77
   4   1  -3   83.11    5.76
   4  -1  -3   75.61    4.65
  -4  -1  -3   80.55    6.49
  -4   1  -3   66.70    5.35
  -4   1   3   69.52    2.98
   4  -1   3   71.62    5.10
  -4   1   3   68.89    6.16
  -4  -1   3   66.73    5.79
  -4  -1  -3   74.49    4.20
   4  -1   3   80.06    5.80
  -4  -1  -3   78.36    6.47
  -4  -1  -3   81.06    7.00
  -4  -1  -4 2021.33   31.88
  -4   1  -4 1978.72   30.79
   4  -1  -4 1949.99   16.67
   4   1  -4 2013.92   30.67
   4  -1  -4 2002.45   31.68
   4  -1  -4 1920.42   22.83
  -4  -1  -4 1969.08   30.78
  -4   1  -4 1977.65   28.04
   4  -1   4 2057.48   28.41
  -4   1   4 2025.57   31.92
  -4  -1   4 2005.93   30.44
   4  -1   4 2031.20   28.03
  -4  -1  -4 2003.59   29.85
  -4   1   4 1971.85   16.76
  -4  -1  -4 1966.66   23.04
  -4   1   5  274.89    6.99
  -4   1  -5  289.81   12.49
   4  -1  -5  282.69    7.00
  -4  -1   5  297.78   10.64
  -4   1   5  277.10    8.25
  -4  -1  -5  291.04   12.72
   4   1  -5  268.64   11.77
   4  -1  -5  278.67   12.09
  -4   1  -5  302.56   11.48
   4  -1   5  289.52   10.55
  -4  -1  -5  283.86   11.35
  -4  -1   5  280.48   11.88
   4   1  -5  276.26    5.29
  -4   1   5  293.08   12.58
  -4  -1  -5  275.63   11.93
  -4  -1  -5  281.12    9.45
  -4   1   6   18.10    2.10
  -4   1   6   23.15    4.16
  -4  -1   6   16.58    3.37
   4   1  -6    9.07    3.56
  -4  -1  -6   14.93    3.15
  -4  -1  -6   20.47    3.61
  -4  -1   6   16.70    2.76
  -4   1   6   17.82    2.21
  -4  -1  -6   19.29    2.86
  -4   1  -6   20.62    4.44
   4  -1  -6   10.53    4.03
   4  -1  -6   20.61    2.10
   4  -1   6   25.37    3.79
  -4   1  -6   19.36    3.81
  -4  -1  -6   20.69    4.49
   4   1  -6   19.13    1.77
  -4   1   7  128.89    5.67
  -4  -1   7  131.00    7.27
  -4  -1  -7  131.45    7.72
   4  -1  -7  139.91    5.87
   4   1  -7  135.55    9.11
   4  -1  -7  112.45    8.12
  -4  -1  -7  132.53    9.29
  -4   1  -7  134.58    9.14
   4  -1   7  132.98    6.95
  -4   1  -7  132.51    8.42
  -4  -1  -7  136.82    9.07
  -4   1   7  129.17    8.87
  -4  -1   7  132.28    8.52
   4   1  -7  132.79    5.11
   4   1  -8  820.36   14.14
  -4   1   8  817.64   14.33
  -4  -1   8  812.97   18.14
  -4   1  -8  820.84   22.52
  -4   1  -8  819.29   20.97
  -4   1   8  814.33   22.35
   4   1  -8  802.54   21.76
   4  -1  -8  846.46   22.73
   4  -1  -8  837.46   15.44
  -4  -1  -8  843.62   22.49
  -4  -1  -8  820.17   18.98
  -4  -1  -8  808.67   22.11
  -4  -1   8  819.30   21.55
   4  -1  -9   17.98    4.72
   4   1   9    9.84    1.37
  -4  -1  -9   12.63    2.99
  -4   1   9    6.66    2.41
  -4   1   9    8.78    1.76
  -4  -1   9   14.79    2.71
   4   1  -9   10.88    2.02
  -4   1  -9   11.40    3.70
  -4  -1  -9    9.88    3.70
   4   1  -9   10.02    3.76
  -4  -1  -9   10.93    3.53
  -4   1  -9    6.84    2.96
   4  -1  -9   12.01    2.24
  -4   1  10  178.08    7.20
  -4  -1  10  185.78    9.12
  -4  -1 -10  193.79   11.72
  -4  -1 -10  185.52   11.42
   4   1 -10  179.07   11.17
   4  -1 -10  182.62   11.28
   4  -1 -10  185.80    8.41
  -4  -1 -10  191.03    9.28
  -4   1 -10  185.24   11.59
  -4   1 -10  185.12   10.95
   4   1 -10  180.78    7.89
  -4  -1 -11  132.69   10.19
   4   1 -11  132.97    7.23
  -4   1  11  129.98    6.40
  -4  -1  11  135.84    8.00
  -4   1 -11  129.53    9.75
   4   1 -11  131.58    9.98
   4  -1 -11  131.03    9.95
  -4   1 -11  142.94   10.47
  -4  -1 -11  142.30    8.11
  -4  -1 -11  138.37   10.23
  -4   1  12  160.86    7.35
  -4  -1  12  157.52    9.05
   4   1 -12  157.68   10.84
   4  -1 -12  160.82   11.08
  -4  -1 -12  156.83   11.01
  -4  -1 -12  166.45   11.36
  -4  -1 -12  167.33    8.80
  -4   1 -12  167.88   11.29
  -4  -1 -13   71.69    7.97
  -4  -1  13   64.23    5.96
   4  -1 -13   65.79    4.89
   4   1 -13   65.63    7.74
   4  -1 -13   68.25    8.00
  -4  -1 -13   72.10    6.13
  -4   1 -13   85.60    9.05
  -4  -1 -13   60.38    7.70
  -4   1  13   66.91    5.08
  -4  -1  14  431.33   15.54
  -4  -1 -14  425.63   19.42
   4  -1 -14  423.01   12.65
   4   1 -14  441.23   19.35
   4  -1 -14  452.66   19.40
  -4  -1 -14  433.02   14.10
  -4   1 -14  455.18   19.70
  -4  -1 -14  431.36   19.21
  -4   1  14  430.23   12.97
  -4  -1  15 1125.16   25.90
   4   1 -15 1160.19   31.98
   4  -1 -15 1191.21   32.12
  -4  -1 -15 1166.17   31.98
  -4  -1 -15 1114.75   22.52
  -4  -1 -15 1120.33   31.51
  -4   1 -15 1187.54   31.82
  -4   1  15 1145.59   21.86
  -4   1 -16  224.90   15.08
   4   1 -16  203.37   14.46
   4  -1 -16  236.13   15.07
  -4  -1 -16  238.07   15.24
  -4  -1 -16  213.04   10.05
  -4  -1 -16  246.96   15.71
  -4   1  16  213.98    9.92
  -4  -1  16  221.13   11.80
  -4   1  17   29.32    4.07
  -4  -1 -17   25.93    3.78
  -4  -1  17   21.79    4.47
   4   1 -17   17.87    5.66
  -4  -1 -17   23.29    5.86
   4  -1 -17   32.99    6.74
  -4  -1 -17   25.23    6.05
  -4   1 -17   22.98    5.45
   4   1 -18  286.53   17.31
   4  -1 -18  285.69   17.17
  -4  -1 -18  299.15   17.35
  -4  -1 -18  290.78   11.54
  -4  -1 -18  293.82   17.23
  -4   1 -18  275.22   16.79
  -4   1  18  281.40   12.15
  -4  -1  18  290.75   14.41
  -4   1  19    2.30    2.06
   4  -1 -19    3.40    4.24
  -4  -1  19   -0.78    2.04
   4   1 -19   -3.01    4.07
  -4  -1 -19    0.64    3.70
  -4   1 -19    0.90    2.88
  -4  -1 -19   -0.15    3.51
  -4  -1  20   21.84    4.56
  -4  -1 -20   22.13    5.44
   4   1 -20   23.51    5.73
   4  -1 -20   24.37    5.75
  -4  -1 -20   21.74    5.60
  -4   1 -20   23.84    5.86
  -4   1  20   21.89    4.03
  -4  -1 -21   74.56   10.10
   4   1 -21   55.31    9.07
   4  -1 -21   51.10    8.36
  -4  -1 -21   61.97    9.07
  -4   1 -21   59.27    9.13
  -4  -1  21   56.68    6.99
   4   1 -22  223.85   16.96
   4  -1 -22  214.91   16.59
  -4  -1 -22  227.21   16.74
  -4  -1 -22  224.64   16.96
  -4   1 -22  234.04   17.21
   4  -1 -22  227.74   15.10
  -4  -1  22  225.24   14.01
  -4  -1  23    0.52    2.16
   4  -1 -23    3.95    3.95
  -4  -1 -23    9.03    5.41
   4   1 -23    6.76    4.37
  -4  -1 -23    7.30    5.13
  -4   1 -23    0.07    3.90
   4  -1 -23    2.79    3.47
   4   1 -24   10.43    4.92
   4  -1 -24    8.55    4.66
  -4  -1 -24   12.39    5.17
  -4  -1 -24   10.83    5.13
  -4   1 -24    8.10    5.04
   4  -1 -24   14.16    4.55
   4   1 -25   81.53   11.32
   4  -1 -25   62.17   10.19
  -4  -1 -25   92.53   11.90
  -4  -1 -25   69.63   10.52
   4  -1 -25   84.92   10.03
  -4   1 -25   83.77   11.43
   4  -1 -26  127.32   12.56
   4   1 -26  132.93   14.59
   4  -1 -26  115.48   13.34
  -4  -1 -26  119.96   13.62
  -4   1 -26  139.64   14.91
  -4  -1 -26  137.17   14.91
   4  -1 -27    9.14    4.42
   4   1 -27    1.21    3.69
  -4  -1 -28   54.15    9.62
   4   1 -28   46.62    8.74
   4   1 -29   19.14    6.30
   4   2   0  503.78    8.36
  -4   2   0  483.03   10.73
  -4  -2   0  482.19    8.27
  -4   2   0  500.50   11.32
  -4  -2   0  496.74   14.46
   4  -2   0  497.45   11.21
  -4  -2   0  493.87   15.97
  -4   2   0  489.32   15.81
   4  -2   0  497.70   13.89
  -4   2   0  499.72   13.96
   4  -2  -1    5.05    1.71
  -4   2  -1    4.02    2.09
   4   2  -1    4.59    0.72
  -4  -2  -1    6.90    3.14
  -4  -2  -1    2.20    3.03
   4   2   1    6.43    1.25
  -4   2   1    3.81    1.26
  -4  -2   1    5.90    2.95
  -4   2   1   -1.53    3.01
  -4  -2  -1   11.43    1.56
   4  -2   1    9.57    2.14
  -4   2   1    9.45    1.89
   4   2  -1    8.93    3.25
  -4   2  -1    5.20    1.83
   4  -2  -1    4.01    1.10
   4  -2   1    7.10    1.65
  -4  -2   1    2.27    2.12
   4   2   2  453.42    9.74
  -4   2   2  432.24   14.79
  -4   2   2  435.88    9.83
  -4  -2  -2  443.43    9.70
   4   2  -2  439.02   13.75
  -4   2  -2  436.72   13.78
  -4  -2   2  441.22   15.30
   4   2  -2  423.98    6.46
   4  -2  -2  455.19   12.84
  -4   2  -2  445.48   11.74
  -4  -2  -2  443.98   14.65
   4  -2  -2  442.40    9.66
  -4  -2   2  426.35   13.59
   4  -2   2  444.68   11.66
  -4  -2  -2  447.42   15.02
   4  -2  -3 1108.21   19.77
   4   2   3 1121.57   16.78
  -4  -2  -3 1111.59   16.81
   4   2  -3 1063.86   10.37
  -4   2   3 1124.12   15.62
   4   2  -3 1054.56   21.88
   4  -2  -3 1148.02   24.16
  -4   2  -3 1114.87   22.40
   4  -2  -3 1083.41   14.71
  -4   2   3 1109.89   24.20
  -4  -2  -3 1104.24   23.78
  -4   2  -3 1085.00   19.34
  -4  -2  -3 1059.77   23.12
  -4  -2   3 1080.87   21.85
   4  -2   3 1114.95   19.48
  -4  -2   3 1136.88   24.43
  -4   2   4 1716.35   20.19
  -4  -2  -4 1796.12   30.66
   4  -2  -4 1757.47   18.79
   4  -2  -4 1754.02   20.11
   4   2  -4 1740.97   14.63
  -4  -2   4 1770.25   27.83
  -4  -2  -4 1755.63   30.67
   4   2  -4 1750.00   28.78
   4  -2  -4 1809.09   30.32
   4  -2  -4 1771.20   25.14
  -4  -2   4 1769.18   28.11
  -4   2  -4 1779.06   29.15
  -4  -2  -4 1785.50   23.19
  -4   2  -4 1748.95   25.55
  -4  -2  -4 1736.22   29.41
  -4   2   4 1825.91   30.88
   4  -2   4 1848.69   26.14
   4  -2   4 1827.93   26.69
   4  -2  -5  122.22    5.53
  -4  -2   5  125.66    7.55
   4   2  -5  115.27    7.38
   4  -2  -5  129.18    8.75
  -4  -2  -5  125.62    6.63
  -4  -2  -5  126.24    8.87
   4  -2  -5  120.10    5.04
  -4   2   5  111.16    5.32
  -4  -2  -5  119.28    8.03
  -4   2  -5  121.11    7.16
   4  -2   5  117.71    4.76
  -4   2   5  128.27    8.78
  -4  -2   5  131.91    7.98
  -4  -2  -5  125.56    8.64
   4  -2   5  124.35    6.85
  -4   2  -5  122.10    7.97
   4  -2   6  224.84    5.75
  -4  -2   6  224.46    9.97
  -4   2   6  232.19    6.23
   4  -2  -6  239.93    8.13
  -4  -2  -6  238.19   11.90
   4   2  -6  245.80   11.54
   4  -2  -6  223.31   11.15
  -4  -2  -6  229.88   11.69
  -4   2   6  219.65    7.95
  -4  -2  -6  237.90    9.67
  -4   2  -6  244.39   11.55
  -4  -2  -6  239.94   10.91
  -4   2  -6  220.81   10.09
  -4   2   6  235.46   11.77
   4  -2   6  234.98    9.15
  -4  -2   6  228.89   10.73
  -4   2  -7  713.77   20.45
  -4   2   7  693.34   10.63
  -4  -2   7  691.05   18.02
  -4  -2  -7  715.12   20.58
   4  -2  -7  719.91   14.89
  -4  -2   7  700.27   19.13
  -4  -2  -7  698.81   18.52
   4   2  -7  732.17   19.83
   4  -2  -7  690.13   20.11
  -4  -2  -7  711.35   20.49
  -4   2  -7  690.75   18.47
   4  -2   7  708.24   15.47
  -4   2   7  725.98   20.62
  -4   2   7  693.53   14.69
  -4   2   8  140.91    4.83
  -4   2  -8  147.79    8.92
  -4  -2   8  140.11    8.45
   4  -2  -8  143.31    7.08
   4   2  -8  152.21    9.63
   4  -2  -8  133.63    8.92
  -4  -2  -8  145.64    9.66
  -4   2  -8  144.42    9.63
  -4  -2  -8  149.02    8.75
   4  -2   8  146.40    6.89
  -4  -2  -8  137.40    9.21
  -4   2   8  139.01    6.97
  -4  -2   8  131.18    8.69
  -4   2   8  140.15    9.34
  -4   2  -9    1.38    2.55
  -4   2   9   -2.07    3.61
  -4   2   9    6.67    1.16
   4   2   9    6.50    1.66
  -4  -2   9    5.18    2.12
  -4  -2  -9    6.71    3.16
  -4   2   9    8.08    2.22
  -4   2  -9    3.65    3.08
  -4  -2  -9    8.08    2.93
   4  -2  -9    8.71    3.37
   4   2  -9    8.13    3.37
  -4  -2  -9    6.84    2.83
   4  -2  -9    4.51    1.54
  -4   2  10   12.88    1.73
  -4  -2  10   12.71    3.06
   4   2 -10   10.10    3.14
  -4  -2 -10   11.06    3.59
  -4   2  10   10.57    2.38
   4  -2 -10   14.27    4.26
  -4  -2 -10   10.33    3.77
  -4   2 -10    8.99    2.85
   4   2  10   12.14    1.80
  -4  -2 -11   74.26    7.80
  -4  -2  11   72.15    6.52
  -4   2  11   71.90    6.05
   4   2 -11   64.01    7.01
   4  -2 -11   76.60    7.90
  -4  -2 -11   74.32    7.81
  -4   2 -11   67.01    7.03
  -4   2  11   72.15    3.96
  -4  -2  12  105.55    8.02
  -4  -2 -12  107.93    9.53
   4   2 -12  117.08    9.60
   4  -2 -12  112.26    9.49
  -4   2 -12  111.89    9.19
  -4  -2 -12  105.06    9.16
  -4   2  12  107.93    5.11
  -4  -2  13   80.18    7.17
   4   2 -13   91.02    8.61
   4  -2 -13   88.22    8.72
  -4   2 -13   96.91    8.99
  -4  -2 -13   89.68    8.79
  -4  -2 -13   98.96    9.20
  -4   2  13   91.26    4.93
   4  -2 -14   52.29    7.23
  -4  -2  14   47.16    5.63
   4   2 -14   41.69    6.76
  -4  -2 -14   52.91    7.47
  -4  -2 -14   49.42    7.25
  -4   2 -14   56.93    7.50
  -4   2  14   47.49    3.75
  -4  -2  15  138.78    9.90
  -4  -2 -15  130.15   11.09
   4   2 -15  136.13   11.16
   4  -2 -15  135.03   11.24
  -4  -2 -15  143.06   11.29
  -4   2 -15  147.16   11.61
  -4   2  15  136.22    6.72
  -4  -2  16   69.62    7.39
  -4  -2 -16   77.53    9.10
   4  -2 -16   73.40    8.89
   4   2 -16   69.86    8.35
  -4  -2 -16   83.01    9.24
  -4   2 -16   77.77    8.89
  -4   2  16   70.04    5.13
  -4  -2  17   78.61    7.77
  -4  -2 -17   79.10    9.20
  -4   2 -17   78.64    9.38
   4   2 -17   71.16    8.75
   4  -2 -17   68.49    8.56
  -4  -2 -17   76.77    9.32
  -4  -2  18  159.21   11.16
  -4  -2 -18  159.55   13.00
   4   2 -18  162.58   13.17
   4  -2 -18  152.25   12.81
  -4  -2 -18  150.52   12.88
  -4   2 -18  163.48   13.22
  -4  -2 -19   11.01    3.98
   4   2 -19    5.21    3.40
  -4  -2  19    9.02    3.48
  -4  -2 -19    7.39    4.85
   4  -2 -19    8.84    4.42
  -4   2 -19   12.00    5.60
   4  -2 -19   10.97    3.44
  -4  -2  20    1.72    2.38
   4   2 -20   -6.78    4.44
   4  -2 -20    0.93    3.05
  -4  -2 -20    2.16    3.36
  -4   2 -20    4.31    3.24
  -4  -2 -20   -0.92    3.46
   4  -2 -20   -0.33    2.13
  -4  -2  21   22.51    5.14
   4  -2 -21   17.83    5.07
  -4   2 -21   25.37    6.36
   4   2 -21   21.18    5.62
  -4  -2 -21   21.66    5.94
   4  -2 -21   19.81    4.39
  -4  -2 -21   24.79    6.11
  -4  -2  22    8.86    3.44
   4   2 -22    0.68    4.19
  -4  -2 -22    6.59    3.75
  -4  -2 -22    6.07    3.27
   4  -2 -22   12.74    4.67
  -4   2 -22    2.69    3.86
   4  -2 -22    8.74    3.61
  -4  -2  23    4.69    2.82
   4   2 -23    4.66    4.21
  -4   2 -23    8.14    4.24
   4  -2 -23    3.19    3.62
  -4  -2 -23   11.06    5.30
  -4  -2 -23   -2.82    3.64
   4  -2 -23    8.71    3.42
  -4  -2  24   -0.65    2.37
  -4   2 -24   -7.97    5.91
  -4  -2 -24   -0.60    2.99
   4   2 -24   -5.48    4.83
   4  -2 -24    0.90    3.48
  -4  -2 -24   -4.32    4.52
   4  -2 -24   -2.98    2.97
  -4  -2  25   -2.73    3.05
   4  -2 -25    2.62    3.79
  -4   2 -25    0.90    3.73
  -4  -2 -25   -2.75    4.47
   4   2 -25    6.65    4.39
  -4  -2 -25    0.13    3.80
   4  -2 -25    4.87    2.93
   4   2 -26   14.46    5.60
  -4  -2 -26   17.50    5.45
  -4  -2 -26   26.69    7.10
  -4   2 -26   13.91    6.26
   4  -2 -26   11.97    5.33
  -4  -2 -27    8.75    5.50
   4  -2 -27    6.32    4.24
  -4  -2 -28   -1.30    4.44
   4   2 -28   -1.59    3.76
  -4  -3   0 1299.40   17.08
  -4   3   0 1325.54   20.81
   4   3   0 1343.19   17.25
  -4   3   0 1323.82   22.04
  -4  -3   0 1392.42   23.18
  -4   3   0 1333.61   16.84
  -4   3   0 1373.04   26.65
  -4  -3   0 1365.63   27.27
   4  -3   0 1323.15   16.71
  -4  -3   0 1314.07   22.97
  -4   3   0 1369.79   20.20
  -4  -3  -1   28.25    4.82
   4   3   1   22.93    2.44
  -4   3   1   28.28    3.34
  -4  -3  -1   26.49    2.72
  -4  -3   1   23.06    4.11
  -4   3  -1   24.06    3.36
   4  -3  -1   22.87    3.02
  -4  -3   1   34.22    3.80
   4   3  -1   24.51    2.29
  -4   3  -1   26.95    2.70
  -4   3   1   27.39    2.27
   4  -3  -1   24.82    2.13
  -4  -3  -1   21.54    2.96
   4   3  -1   36.75    4.69
  -4   3  -1   28.80    3.77
   4  -3   1   25.93    2.61
  -4   3   1   27.47    4.54
  -4   3   1   28.19    2.85
  -4   3  -1   30.00    3.33
  -4  -3  -1   33.50    4.27
  -4  -3   1   23.50    3.33
  -4   3   2   56.94    4.34
  -4  -3  -2   53.10    3.94
   4  -3   2   57.24    4.07
   4   3  -2   56.84    3.26
  -4   3  -2   56.03    4.08
  -4  -3  -2   55.25    4.72
   4   3  -2   56.64    5.30
  -4   3  -2   62.73    5.37
   4  -3  -2   58.16    4.45
  -4  -3  -2   52.45    5.35
  -4  -3  -2   61.33    6.95
  -4  -3   2   55.21    4.78
   4  -3  -2   57.52    2.97
  -4  -3   2   59.15    6.02
   4   3   2   52.38    3.90
  -4   3  -2   62.17    4.82
  -4   3   2   60.15    3.79
  -4   3   2   53.58    5.35
  -4  -3  -3  446.78   13.42
   4  -3  -3  463.82   12.32
  -4  -3  -3  429.38   15.68
   4   3  -3  447.80    9.44
  -4  -3   3  451.31   15.07
  -4   3   3  441.78   11.80
  -4  -3  -3  441.00   11.77
   4   3  -3  455.84   14.03
   4  -3  -3  437.41   15.60
  -4   3  -3  430.74   14.03
  -4  -3  -3  443.89   15.66
  -4   3  -3  438.09   11.88
   4  -3  -3  440.80    7.52
  -4   3   3  434.78   15.23
  -4  -3   3  444.98   13.66
   4  -3   3  446.62   11.80
  -4  -3   3  438.27   15.86
   4  -3   3  463.59   12.17
   4   3   3  453.80   11.83
  -4   3   3  449.65    9.30
  -4   3   4    2.99    2.16
  -4  -3   4    1.42    1.99
  -4  -3  -4    0.68    1.09
  -4  -3  -4    1.98    2.66
   4  -3   4    1.88    1.37
   4  -3  -4    4.89    1.69
  -4  -3   4    3.04    2.25
   4   3   4    0.12    1.61
   4   3  -4    1.22    1.26
  -4  -3   4    1.95    2.27
   4  -3  -4    3.45    1.61
   4  -3  -4    8.92    3.89
   4  -3  -4    2.57    0.67
   4   3  -4    0.57    2.81
  -4   3  -4    0.98    1.49
  -4   3  -4    0.61    2.37
  -4   3   4    1.56    1.44
  -4  -3  -4    3.89    3.05
  -4   3   4    2.50    0.98
   4  -3  -5  210.65    8.18
   4  -3   5  202.58    7.14
   4   3  -5  203.03    7.05
   4  -3  -5  201.46    8.25
  -4  -3   5  220.96   10.85
   4   3   5  205.09    8.95
  -4   3  -5  206.30    9.24
   4   3  -5  204.30   10.04
  -4  -3  -5  210.81    9.06
   4  -3  -5  197.88   10.71
  -4   3   5  204.16    8.45
  -4   3  -5  199.43   10.16
  -4  -3  -5  212.73   11.51
   4  -3  -5  196.59    4.96
  -4   3   5  216.00   11.05
  -4  -3   5  214.78    9.96
  -4  -3  -5  205.21   10.73
  -4  -3   5  217.79   11.34
  -4   3   5  199.84    4.99
   4   3   6  810.48   18.50
  -4   3   6  756.55    8.08
  -4  -3   6  823.26   20.72
   4  -3  -6  830.07   17.03
   4   3  -6  803.30   20.42
   4  -3  -6  813.13   21.67
   4  -3  -6  798.45   16.02
  -4  -3  -6  827.51   21.87
  -4   3  -6  808.86   21.24
  -4   3   6  783.84   16.87
   4  -3  -6  766.30   10.42
  -4  -3  -6  804.99   22.71
  -4   3  -6  821.16   19.11
  -4   3   6  822.67   22.00
  -4  -3   6  816.30   19.67
  -4  -3   6  825.92   22.02
   4   3   7  127.06    7.96
  -4  -3   7  113.59    7.99
   4  -3  -7  126.67    6.96
   4   3  -7  134.67    8.91
   4  -3  -7  119.13    8.43
  -4   3   7  122.12    6.95
  -4   3  -7  114.66    8.52
  -4  -3  -7  127.15    9.66
  -4   3  -7  126.24    7.95
  -4   3   7  127.01    9.05
  -4  -3   7  121.35    8.16
  -4  -3  -7  133.92    9.36
   4  -3   7  124.64    6.56
  -4  -3   8  137.62    8.94
   4   3   8  152.36    8.98
   4   3  -8  148.48    9.52
   4  -3  -8  133.62    9.08
  -4  -3  -8  151.21    9.87
  -4  -3  -8  147.10   10.02
  -4   3  -8  146.84    8.94
  -4   3   8  150.82    7.97
   4  -3   8  146.43    6.91
  -4   3   8  126.47    9.06
  -4  -3  -9  119.22    9.43
  -4  -3   9  116.53    8.28
   4   3   9  119.36    6.66
   4   3  -9  111.84    8.59
   4  -3  -9   99.11    7.77
  -4  -3  -9  125.62    9.27
   4  -3   9  114.61    5.91
  -4   3  -9  114.70    8.28
  -4   3   9  115.39    8.81
  -4   3   9  117.23    7.31
   4   3  10   36.92    3.74
  -4  -3 -10   30.31    5.00
  -4  -3  10   32.76    4.95
   4  -3  10   35.42    3.25
  -4  -3 -10   27.46    4.69
   4   3 -10   41.65    5.46
  -4   3 -10   36.23    5.25
   4  -3 -10   43.69    6.16
  -4   3  10   37.27    4.41
  -4   3  11  237.16   11.24
  -4  -3 -11  242.78   13.26
   4   3 -11  243.91   13.30
   4  -3 -11  251.18   13.56
  -4  -3  11  253.37   12.66
  -4   3 -11  257.76   13.10
  -4  -3 -11  242.25   13.81
   4   3  11  260.18    9.69
   4   3 -12   35.46    5.65
  -4  -3  12   25.23    4.49
  -4   3  12   30.90    4.45
  -4  -3 -12   37.38    6.04
  -4  -3 -12   27.78    5.13
   4  -3 -12   35.61    5.94
  -4   3 -12   31.93    5.34
  -4  -3  13   14.80    3.72
  -4   3  13   18.37    3.78
   4  -3 -13   14.05    4.02
  -4  -3 -13   13.74    4.09
  -4  -3 -13   16.51    4.43
  -4   3 -13   18.95    4.76
   4   3 -13   12.86    3.94
  -4  -3 -14    9.35    4.08
   4   3 -14    5.10    2.74
  -4  -3  14    7.84    3.04
  -4   3  14    7.84    3.17
   4  -3 -14   11.73    4.43
  -4  -3 -14   -0.08    3.80
  -4   3 -14    9.87    3.85
   4  -3 -14    9.26    2.43
  -4  -3  15   91.48    8.50
   4   3 -15   79.96    8.58
   4  -3 -15   93.13    9.52
  -4  -3 -15   83.51    8.93
  -4  -3 -15   90.41    9.75
  -4   3 -15   94.30    9.51
   4  -3 -15   85.09    6.59
  -4  -3 -16    0.49    2.94
  -4  -3  16   -3.33    3.37
   4  -3 -16    3.79    3.65
  -4  -3 -16   -1.75    3.50
  -4   3 -16    4.01    3.61
   4  -3 -16   -1.60    1.97
   4   3 -16   -8.94    4.39
  -4  -3  17  154.20   11.38
   4   3 -17  146.71   12.32
   4  -3 -17  147.60   12.34
  -4  -3 -17  143.16   11.96
  -4  -3 -17  141.86   12.38
  -4   3 -17  150.47   12.58
   4  -3 -17  142.00    9.20
  -4  -3  18   67.44    7.92
  -4  -3 -18   67.51    8.75
   4  -3 -18   79.05    9.48
  -4  -3 -18   73.16    9.42
   4   3 -18   63.95    8.60
  -4   3 -18   82.92    9.78
   4  -3 -18   66.83    6.75
   4   3 -19   86.26   10.08
   4  -3 -19   84.43    9.78
  -4  -3 -19   88.19    9.88
  -4   3 -19  102.75   10.72
   4  -3 -19   87.07    7.95
  -4  -3 -19   92.15   10.39
  -4  -3  19   81.05    8.70
  -4  -3  20   43.62    6.82
   4   3 -20   42.18    7.82
  -4  -3 -20   53.56    8.40
   4  -3 -20   53.17    8.51
  -4  -3 -20   46.09    8.32
   4  -3 -20   53.32    6.55
  -4   3 -20   56.78    8.77
   4   3 -21  366.99   21.30
   4  -3 -21  343.05   20.42
  -4  -3 -21  383.36   21.19
  -4  -3 -21  373.22   21.62
  -4   3 -21  402.69   22.10
   4  -3 -21  399.99   17.81
  -4  -3  21  389.41   19.57
  -4  -3  22   -1.53    3.01
   4   3 -22    3.52    3.94
   4  -3 -22    9.28    5.28
   4  -3 -22    5.57    3.73
  -4  -3 -22   10.97    5.79
  -4  -3 -22    5.89    5.01
  -4   3 -22   12.01    5.67
  -4  -3  23   27.88    5.86
  -4   3 -23   30.25    7.06
   4   3 -23   21.18    5.83
  -4  -3 -23   36.36    7.39
  -4  -3 -23   29.37    6.97
   4  -3 -23   44.79    8.05
  -4  -3  24   -2.63    3.29
   4  -3 -24    0.69    3.55
  -4  -3 -24   -2.47    4.11
   4   3 -24    0.66    2.83
  -4  -3 -24   -2.95    3.61
  -4   3 -24    1.66    3.87
  -4  -3  25   51.14    8.07
   4  -3 -25   41.41    8.13
   4   3 -25   39.86    7.80
  -4  -3 -25   41.15    7.94
  -4  -3 -25   44.91    8.58
  -4   3 -25   47.12    8.76
  -4  -3  26   11.80    4.20
   4  -3 -26   12.90    5.13
  -4  -3 -26   12.81    5.00
  -4  -3 -26   20.01    6.94
  -4   3 -26   18.67    6.11
   4   3 -26   19.54    6.44
  -4  -3 -27    6.92    4.49
  -4  -3 -28   11.59    5.14
  -4  -4   0   21.56    4.07
  -4   4   0   18.93    2.56
  -4  -4   0   23.45    2.93
  -4   4   0   18.36    3.11
  -4   4   0   20.13    1.98
  -4   4   0   20.37    3.14
   4  -4   0   14.76    2.83
  -4  -4   0   24.44    3.20
   4   4   0   20.91    2.84
  -4   4   0   17.40    3.98
  -4  -4   0   16.18    2.77
  -4  -4   1   26.37    4.72
   4  -4   1   32.08    3.91
  -4  -4  -1   28.79    3.23
  -4   4   1   35.33    4.38
  -4  -4  -1   36.99    4.12
  -4   4  -1   31.32    3.94
  -4   4  -1   33.30    5.33
  -4  -4   1   30.99    3.55
  -4   4   1   34.80    3.76
   4   4   1   32.27    3.40
  -4   4  -1   32.79    3.75
   4   4  -1   25.63    2.77
  -4   4   1   31.08    2.14
  -4   4  -1   32.08    2.77
   4  -4  -1   26.21    3.64
  -4   4  -1   33.01    3.46
  -4  -4  -1   30.32    3.37
  -4   4   1   38.84    5.03
  -4  -4   1   32.18    3.60
  -4   4   1   34.13    3.11
  -4  -4  -1   37.60    5.49
  -4  -4  -2  142.35    9.67
  -4   4  -2  147.89    8.34
  -4  -4  -2  141.48    7.04
  -4   4   2  142.42    7.65
  -4  -4   2  145.23    9.49
   4   4  -2  140.12    6.48
  -4   4  -2  153.09    8.16
  -4  -4   2  140.84    9.39
  -4  -4   2  143.42    7.56
  -4  -4  -2  144.38    7.35
   4   4  -2  142.51    7.74
  -4   4  -2  135.07    6.05
  -4   4   2  139.88    8.80
   4   4   2  142.74    7.18
  -4  -4   2  132.45    7.26
   4  -4   2  135.54    7.39
  -4   4   2  140.93    5.67
   4  -4   3   57.74    4.88
   4   4  -3   51.21    4.05
  -4  -4  -3   57.03    4.71
  -4  -4   3   58.67    6.24
  -4   4   3   48.93    4.66
   4   4  -3   53.07    5.15
   4  -4  -3   51.41    3.92
  -4  -4  -3   54.34    4.66
  -4   4  -3   58.49    5.47
  -4  -4   3   54.09    6.27
  -4  -4  -3   53.34    5.90
  -4   4  -3   50.50    4.12
   4   4   3   55.32    4.75
  -4  -4   3   56.83    4.84
  -4   4   3   47.63    5.15
  -4   4   3   55.07    3.23
  -4   4   4  136.91    4.34
   4   4  -4  143.47    6.75
  -4  -4   4  139.96    9.28
   4  -4   4  148.12    7.51
   4  -4  -4  148.45    9.59
  -4   4   4  143.81    7.86
   4   4  -4  145.00    8.04
   4  -4  -4  140.72    6.31
  -4   4  -4  151.60    8.70
  -4  -4  -4  146.72    9.95
  -4  -4  -4  149.76    7.72
  -4   4  -4  156.00    7.64
  -4  -4   4  140.73    9.42
  -4   4   4  144.92    9.28
   4   4   4  149.82    7.86
  -4  -4   4  147.28    7.81
   4   4  -5  842.81   16.54
  -4  -4   5  851.39   22.64
  -4   4   5  859.86   19.13
   4   4  -5  885.51   20.37
   4  -4  -5  856.54   22.03
   4  -4  -5  860.56   15.48
  -4   4  -5  901.50   21.60
  -4  -4  -5  897.07   24.12
  -4   4  -5  855.37   18.79
  -4   4   5  869.75   22.50
  -4  -4   5  843.95   22.79
  -4  -4   5  857.56   19.29
   4   4   5  874.96   19.71
   4   4  -6  127.79    6.73
  -4  -4   6  123.89    9.16
  -4  -4  -6  131.17    9.90
   4   4  -6  138.73    8.57
   4  -4  -6  121.87    8.80
   4  -4  -6  125.14    5.92
  -4   4   6  122.80    7.68
  -4   4  -6  130.80    8.10
  -4   4   6  122.68    8.99
  -4  -4   6  129.10    9.14
  -4  -4   6  124.17    7.67
   4   4   6  124.81    8.00
   4   4   7  268.37   11.97
  -4  -4   7  267.46   13.15
   4   4  -7  272.26   12.18
   4  -4  -7  277.75   13.04
   4  -4  -7  263.89    8.70
  -4   4   7  270.59   11.33
  -4  -4  -7  291.65   14.41
  -4   4  -7  274.22   11.70
  -4   4   7  267.40   13.12
  -4  -4   7  262.16   12.98
  -4   4   8   -0.73    2.96
  -4   4   8   -1.03    2.26
  -4  -4   8   -1.92    3.20
  -4  -4  -8    3.04    2.98
  -4  -4  -8   -0.48    2.96
  -4  -4   8    4.90    2.23
   4  -4  -8   -0.23    3.35
   4   4   8    4.54    2.28
   4  -4  -8    2.33    1.18
   4   4  -8    4.60    2.99
   4  -4  -8    2.01    0.60
  -4   4  -8    3.33    2.27
  -4  -4  -9    0.39    2.67
  -4   4   9   -4.96    3.80
  -4   4   9   -0.50    2.13
  -4  -4   9    2.87    2.56
   4   4   9   -1.44    2.54
  -4   4  -9    0.74    1.99
   4  -4  -9   -4.09    3.62
  -4  -4  -9   -2.31    3.47
   4  -4  -9    0.07    0.51
   4   4  -9    2.02    2.53
   4  -4   9   -0.81    1.30
  -4  -4  10   48.64    6.19
   4   4 -10   37.24    5.42
   4  -4 -10   37.86    5.40
  -4  -4 -10   45.12    6.39
  -4  -4 -10   41.87    6.14
   4   4  10   40.88    5.39
   4  -4 -10   44.92    3.03
   4  -4  10   44.44    3.64
  -4   4  10   43.66    5.05
  -4   4 -10   42.37    5.55
   4  -4  11   11.83    1.93
  -4  -4  11   14.00    3.82
   4  -4 -11    8.12    2.72
  -4  -4 -11   14.62    4.37
  -4   4  11   11.32    3.21
   4   4  11   14.49    4.93
  -4  -4 -11   11.24    4.71
  -4   4 -11    9.15    2.87
   4  -4 -11   12.71    1.95
   4   4 -11   16.78    4.14
  -4  -4 -12    8.28    3.67
  -4  -4  12    3.10    2.55
  -4   4  12    5.88    2.62
   4  -4 -12    4.86    4.06
   4   4 -12    0.60    2.81
  -4  -4 -12    2.35    3.36
   4   4  12    9.12    3.57
  -4   4 -12    3.34    2.84
   4  -4 -12    5.61    1.60
  -4  -4  13    3.49    2.56
  -4   4  13    5.66    2.43
  -4  -4 -13    5.24    3.44
   4   4 -13    5.15    2.77
  -4  -4 -13    5.17    3.76
   4  -4 -13    7.10    3.62
  -4   4 -13    9.33    3.85
   4  -4 -13    7.78    1.86
  -4  -4  14   96.82    8.88
  -4   4  14  105.04    8.86
   4   4 -14  106.72    9.59
   4  -4 -14  109.23   10.01
  -4  -4 -14   97.97    9.30
  -4   4 -14   97.36    9.18
   4  -4 -14  104.90    6.40
  -4  -4 -14  108.43   10.37
  -4  -4 -15   31.89    5.92
  -4  -4  15   33.67    5.64
  -4   4  15   34.94    5.39
   4   4 -15   29.83    5.67
   4  -4 -15   36.05    6.37
  -4  -4 -15   27.67    5.78
  -4   4 -15   32.21    5.85
   4  -4 -15   30.52    3.85
   4   4 -16   17.55    4.53
  -4  -4  16   15.96    4.44
  -4   4  16   15.40    4.01
  -4  -4 -16   16.62    4.88
  -4  -4 -16   17.74    5.25
   4  -4 -16   21.10    5.36
  -4   4 -16   13.60    4.46
   4  -4 -16   17.30    3.21
  -4  -4 -17   19.16    4.84
  -4  -4  17   17.11    4.52
   4  -4 -17   18.81    5.12
   4   4 -17   17.43    4.87
  -4  -4 -17   23.65    5.86
  -4   4 -17   18.36    5.05
   4  -4 -17   24.75    3.85
   4   4 -18   52.71    7.81
  -4  -4  18   53.07    7.42
   4  -4 -18   52.17    7.72
  -4  -4 -18   55.66    7.93
  -4  -4 -18   52.09    8.02
   4  -4 -18   55.77    5.88
  -4   4 -18   49.84    7.76
  -4  -4  19  107.59   10.53
   4   4 -19  100.81   10.73
   4  -4 -19  111.40   11.18
  -4  -4 -19  122.02   11.51
  -4  -4 -19  111.88   11.56
   4  -4 -19  110.09    8.34
  -4   4 -19  105.13   11.22
  -4  -4 -20    2.92    4.11
   4  -4 -20    3.22    3.22
  -4  -4  20    3.30    2.85
  -4  -4 -20    2.84    3.38
  -4   4 -20   10.72    4.98
   4   4 -20   -1.49    4.38
  -4  -4  21    7.44    3.69
   4   4 -21    4.12    3.69
  -4  -4 -21    6.44    3.61
  -4  -4 -21   11.44    5.46
  -4   4 -21    7.84    4.07
   4  -4 -21   14.31    4.97
   4  -4 -22   21.97    6.04
   4   4 -22   31.25    7.00
  -4  -4  22   30.90    6.52
  -4  -4 -22   25.77    6.20
  -4  -4 -22   32.47    7.06
  -4   4 -22   25.57    6.64
  -4  -4  23   -1.09    3.40
  -4  -4 -23    8.40    4.69
   4   4 -23   -7.08    4.88
   4  -4 -23    3.42    3.62
  -4  -4 -23   -1.10    3.43
  -4   4 -23   -2.89    3.48
  -4  -4  24    0.04    2.93
  -4  -4 -24   -0.39    3.29
   4  -4 -24   -3.41    3.82
  -4  -4 -24   -1.65    3.60
   4   4 -24    1.98    3.30
  -4   4 -24   -4.32    4.76
  -4  -4  25    0.85    3.22
   4   4 -25    5.06    3.68
   4  -4 -25    1.81    3.49
  -4  -4 -25    0.83    3.82
  -4  -4 -25   12.15    5.96
  -4   4 -25    5.53    4.25
  -4  -4  26    0.25    3.10
   4  -4 -26    2.22    3.88
  -4  -4 -26   -3.47    4.18
  -4  -4 -26    0.22    3.61
  -4  -4  27    1.31    2.81
  -4  -4 -27   -3.65    4.49
  -4  -4 -28    7.55    4.72
  -4   5   0  313.65   10.19
  -4   5   0  302.29   12.72
  -4   5   0  305.30   10.52
  -4  -5   0  320.08   14.52
   4   5   0  311.47   11.42
  -4  -5   0  316.01   10.51
  -4   5   0  315.50   13.29
  -4   5   0  305.25    7.18
  -4  -5   0  308.18   10.41
   4  -5   0  330.00   13.23
   4  -5  -1    1.74    2.40
  -4   5  -1    0.44    0.99
  -4   5   1    2.13    1.15
  -4   5  -1   -1.72    2.32
  -4  -5   1    2.12    3.07
  -4   5   1    0.45    1.89
  -4  -5   1   -0.19    1.15
  -4   5   1    2.83    1.22
  -4   5  -1    0.61    1.44
   4   5  -1   -2.69    2.51
  -4   5   1    0.75    0.41
   4  -5   1    2.54    2.33
  -4  -5  -1    2.47    1.49
  -4   5  -1    0.36    0.92
   4   5   1    0.76    1.37
  -4   5  -1    3.41    2.98
  -4  -5  -1    2.29    1.91
  -4   5   1   -1.39    3.11
  -4  -5   1    3.33    3.49
  -4  -5   1   -5.48    2.46
  -4  -5   2  160.35    7.69
  -4   5   2  174.12    6.49
  -4   5  -2  170.67    9.80
   4  -5   2  175.99    9.24
  -4   5   2  167.51    9.31
  -4  -5   2  175.65   10.74
   4   5  -2  165.94    8.15
   4   5  -2  171.52    8.31
  -4  -5   2  166.90    7.97
  -4  -5  -2  163.52    7.48
  -4   5  -2  168.73    8.48
  -4   5   2  162.25    9.71
  -4  -5  -2  168.44    8.06
  -4   5  -2  165.44    6.73
   4  -5  -2  172.29   10.08
   4   5   2  174.04    8.82
  -4  -5   2  168.32   10.78
  -4   5   3  260.36    7.15
  -4   5  -3  259.93    9.14
  -4   5  -3  264.65   12.12
  -4  -5   3  271.14   13.47
   4   5  -3  239.22    9.80
  -4   5   3  246.89   11.23
   4  -5   3  257.95   11.15
  -4  -5  -3  254.05    9.38
   4   5  -3  259.98   10.43
  -4   5  -3  259.78   11.15
   4   5   3  266.42   11.25
  -4  -5   3  249.24   13.03
  -4   5   3  243.47   11.97
   4  -5  -3  249.40   12.52
  -4  -5   3  256.48    9.92
  -4  -5  -4  120.35    9.24
  -4   5   4  117.16    4.09
   4   5  -4  112.59    6.87
  -4  -5   4  122.63    9.23
  -4   5   4  124.74    8.05
   4   5  -4  111.26    7.17
  -4  -5  -4  115.71    6.49
  -4   5  -4  118.73    7.85
   4  -5  -4  117.72    8.69
  -4   5  -4  123.53    6.77
  -4   5   4  124.76    8.86
  -4  -5   4  108.38    6.64
  -4  -5   4  110.65    8.91
   4   5   4  115.13    7.73
   4   5  -5   93.26    6.27
  -4  -5   5  100.26    8.33
  -4   5   5   94.61    7.32
   4   5  -5   92.80    6.70
   4  -5  -5  102.99    8.49
  -4  -5  -5   96.99    8.70
  -4  -5  -5   98.53    6.17
   4  -5  -5   93.09    7.94
  -4  -5   5   95.99    8.18
   4   5   5   91.64    7.07
  -4   5  -5   94.27    6.32
  -4   5   5   98.88    8.18
  -4  -5   5   88.52    6.18
  -4   5   6   14.01    3.50
   4   5   6   12.06    2.97
  -4  -5   6   12.85    3.42
   4   5  -6   10.37    2.85
  -4  -5   6   10.93    3.45
  -4  -5  -6   15.42    4.38
   4  -5  -6   10.68    1.65
   4  -5  -6   17.88    4.68
  -4   5   6    9.42    2.75
  -4   5  -6   12.80    2.80
   4   5  -6   16.99    3.62
  -4   5   7    8.65    2.85
   4   5  -7    9.44    2.82
   4   5   7   11.54    3.16
  -4  -5   7    8.78    3.41
   4  -5  -7    7.69    1.43
  -4  -5   7    7.18    2.59
  -4  -5  -7   12.53    4.41
   4  -5  -7   11.99    4.22
   4   5  -7   10.47    3.42
  -4   5  -7   11.85    2.96
  -4   5   7    5.59    2.69
  -4  -5   8  203.88   12.47
   4   5  -8  212.09   11.09
   4  -5  -8  212.64   12.02
   4  -5  -8  209.34    6.81
  -4   5   8  212.35   11.19
  -4  -5  -8  224.96   13.56
  -4   5  -8  212.17   11.09
  -4   5   8  202.79   11.95
  -4  -5   8  217.12   12.20
   4   5   8  209.13   11.57
  -4  -5   9  161.28   10.54
   4   5  -9  159.37   10.03
   4  -5  -9  171.33   10.88
   4  -5  -9  161.54    6.13
  -4  -5  -9  169.76   12.19
  -4   5   9  169.68   10.21
  -4  -5   9  151.97   10.96
  -4   5  -9  174.40   10.41
  -4   5   9  164.81   10.96
   4   5   9  178.15   10.90
   4   5  10  303.28   14.73
  -4  -5  10  338.39   16.05
   4  -5 -10  263.21    5.06
   4   5 -10  320.80   14.48
   4  -5 -10  312.40   14.82
  -4  -5 -10  310.95   15.18
  -4   5  10  309.28   14.14
  -4  -5 -10  332.76   16.90
  -4   5 -10  325.85   14.63
   4  -5 -10  313.05    8.77
  -4  -5  10  326.52   15.05
  -4  -5 -11   40.98    6.27
  -4  -5  11   51.21    6.95
   4   5  11   44.98    6.35
   4   5 -11   42.35    5.75
   4  -5 -11   38.82    5.84
   4  -5 -11   38.70    2.57
  -4  -5 -11   50.01    7.57
  -4   5 -11   50.28    6.57
  -4   5  11   46.91    5.95
   4  -5  11   38.28    3.31
  -4  -5 -12   98.54    8.91
  -4  -5  12   93.34    8.96
   4   5  12   97.37    9.14
  -4   5 -12  100.04    8.95
   4   5 -12   90.59    8.49
   4  -5 -12   97.22    8.49
  -4  -5 -12  101.41   10.11
   4  -5 -12   89.51    4.49
   4  -5  12   95.86    4.64
  -4   5  12   95.74    8.58
  -4  -5 -13   29.70    6.42
  -4  -5  13   25.45    5.14
  -4   5  13   27.50    4.93
   4   5 -13   30.31    5.46
  -4  -5 -13   22.30    5.01
   4  -5 -13   21.46    5.33
   4   5  13   18.33    4.53
   4  -5 -13   27.19    2.87
  -4   5 -13   25.15    5.49
  -4  -5  14  449.71   19.68
   4   5  14  462.49   20.47
   4   5 -14  438.57   19.50
   4  -5 -14  467.46   20.13
  -4  -5 -14  467.73   21.29
  -4  -5 -14  447.33   19.51
   4  -5 -14  450.41   12.06
  -4   5 -14  448.31   19.85
  -4   5  14  467.46   19.22
  -4  -5  15   13.33    4.94
  -4   5  15    6.00    3.58
  -4  -5 -15   15.58    5.39
  -4  -5 -15   13.42    5.56
   4   5 -15    6.34    4.11
   4  -5 -15   18.96    5.65
  -4   5 -15    9.16    4.17
  -4  -5  16  130.21   11.46
  -4   5  16  110.13   10.27
  -4  -5 -16  125.50   11.09
   4   5 -16  113.60   10.85
   4  -5 -16  137.11   11.80
  -4  -5 -16  119.68   11.68
  -4   5 -16  107.76   10.67
  -4   5  17   41.77    6.43
  -4  -5 -17   50.48    7.71
  -4  -5  17   56.80    8.04
   4   5 -17   50.55    7.44
  -4  -5 -17   45.09    7.62
  -4   5 -17   47.82    7.58
   4  -5 -17   52.39    7.87
  -4  -5  18   86.42    9.68
  -4   5  18   85.94    9.48
   4   5 -18   85.51    9.88
   4  -5 -18   96.03   10.56
  -4  -5 -18   86.28    9.94
  -4  -5 -18   90.43    9.86
  -4   5 -18   84.69    9.98
  -4  -5  19   -0.13    2.63
  -4  -5 -19   -0.69    3.31
  -4  -5 -19    0.34    3.90
   4   5 -19   -3.50    3.25
  -4   5 -19    3.04    3.89
   4  -5 -19    7.80    4.70
  -4  -5  20   71.06    9.28
   4   5 -20   68.26    9.25
  -4  -5 -20   65.39    8.73
   4  -5 -20   59.60    8.71
  -4  -5 -20   59.71    8.80
  -4   5 -20   54.54    8.66
   4   5 -21    5.38    4.11
  -4  -5  21    8.28    4.65
  -4  -5 -21    2.00    3.16
   4  -5 -21    5.55    4.31
  -4  -5 -21    4.42    4.49
  -4   5 -21   15.19    6.23
   4   5 -22  113.01   12.56
   4  -5 -22  112.29   12.23
  -4  -5 -22  122.70   13.09
  -4   5 -22  114.00   12.64
  -4  -5 -22  125.62   12.39
  -4  -5  22  117.99   12.18
   4  -5 -23   22.86    6.50
  -4  -5  23   26.30    6.57
  -4  -5 -23   26.32    6.66
  -4  -5 -23   15.47    5.67
  -4   5 -23   21.90    6.63
   4   5 -23   15.74    5.20
  -4  -5  24   42.85    7.67
   4   5 -24   47.62    8.86
  -4  -5 -24   39.07    8.28
  -4   5 -24   44.84    8.92
   4  -5 -24   40.31    7.95
  -4  -5 -24   61.27    9.29
  -4  -5  25    7.00    4.10
  -4  -5 -25   11.66    4.87
   4   5 -25    9.87    4.51
   4  -5 -25   18.22    5.61
   4  -5 -25    4.38    3.97
  -4  -5 -25   10.04    5.09
  -4   5 -25   21.52    6.83
  -4  -5  26    4.33    3.43
  -4  -5 -26   -8.97    5.28
   4  -5 -26   -0.02    3.06
  -4  -5 -26    4.35    3.66
   4  -5 -26  -10.91    6.01
  -4  -5  27   -4.20    3.90
  -4  -5 -27    4.54    3.94
  -4   6   0  236.16    9.44
   4  -6   0  246.01   12.48
  -4   6   0  233.36   12.24
  -4  -6   0  239.26   13.23
   4   6   0  228.48   10.71
  -4  -6   0  228.82    8.63
  -4   6   0  238.29    9.25
  -4   6   0  241.97   12.00
  -4   6   0  224.62    6.16
  -4  -6   0  221.23    8.47
  -4   6   1   44.46    3.90
   4  -6  -1   56.44    8.21
  -4   6   1   49.38    5.98
   4  -6   1   49.04    6.03
  -4  -6   1   38.58    5.53
  -4   6  -1   44.32    5.43
  -4  -6  -1   41.98    3.69
   4   6   1   45.39    5.13
  -4   6   1   45.66    3.96
  -4   6  -1   46.48    4.53
  -4   6   1   39.18    1.97
   4   6  -1   37.18    4.28
  -4  -6  -1   37.60    3.65
  -4   6  -1   46.69    3.31
  -4  -6   1   44.63    3.94
  -4   6  -1   42.04    5.37
  -4   6   1   38.11    4.80
   4  -6  -2  155.92   10.44
  -4   6   2  150.99    6.59
  -4   6  -2  150.07   10.04
  -4   6   2  154.99    9.77
  -4  -6   2  160.18   11.06
   4   6  -2  142.58    8.52
  -4  -6  -2  136.67    6.93
  -4  -6  -2  136.20    6.53
  -4  -6   2  153.07   10.76
   4   6  -2  149.37    7.76
  -4   6  -2  148.24    9.72
  -4   6   2  129.05    8.69
  -4   6  -2  150.87    6.56
  -4  -6   2  140.04    6.87
  -4   6  -2  147.20    8.06
   4   6   2  149.04    9.02
  -4  -6   3   18.62    4.99
  -4   6   3    8.29    3.42
  -4   6  -3    5.90    1.90
  -4  -6   3    5.06    1.65
  -4   6  -3    7.93    3.71
  -4   6   3    7.75    1.61
   4  -6  -3    7.06    3.78
  -4   6   3    7.20    2.79
  -4  -6   3    2.43    3.12
  -4   6  -3    6.46    2.55
   4   6  -3    4.11    2.19
  -4  -6  -3    8.33    1.92
   4   6  -3    8.30    2.60
   4   6   3    6.80    2.90
  -4   6  -4  241.37   12.80
  -4   6   4  213.85    6.11
  -4  -6   4  223.83   13.17
   4   6  -4  226.43   10.59
  -4   6   4  229.24   11.83
  -4  -6  -4  211.31    8.24
   4   6  -4  212.97    9.69
  -4   6   4  240.46   12.20
  -4  -6   4  220.27   12.96
  -4   6  -4  221.76    9.44
   4  -6  -4  218.52   12.65
   4  -6   4  223.59   11.09
   4   6   4  217.17   11.31
  -4   6   5   28.51    4.78
  -4  -6   5   27.20    5.39
   4   6   5   25.80    4.11
  -4  -6  -5   27.08    3.20
  -4  -6   5   25.74    5.01
   4   6  -5   31.03    4.28
  -4   6   5   19.73    3.32
   4  -6   5   23.71    4.08
   4   6  -5   19.84    3.31
  -4   6  -5   30.72    3.94
   4  -6  -5   25.63    4.90
  -4  -6  -6  219.37    8.89
  -4  -6   6  227.26   13.42
   4   6  -6  230.20   11.28
  -4   6   6  238.26   12.32
   4   6  -6  228.09   10.90
  -4   6   6  220.58   12.27
   4  -6  -6  226.53   12.31
  -4  -6  -6  218.59   13.56
  -4  -6   6  224.13   12.88
   4   6   6  228.26   12.05
  -4   6  -6  220.20   10.48
   4  -6  -6  222.86   13.15
   4  -6   6  231.84   12.22
  -4   6   7   32.66    4.84
   4   6  -7   35.22    4.74
  -4  -6   7   32.25    5.27
   4   6   7   36.98    5.50
  -4  -6   7   39.07    6.02
   4   6  -7   38.05    5.05
   4  -6  -7   28.85    5.22
   4  -6  -7   43.95    6.53
  -4  -6  -7   39.43    6.53
  -4   6   7   34.95    5.30
  -4   6  -7   39.35    4.73
   4  -6   7   40.66    5.75
  -4   6   8   -3.43    3.00
   4   6  -8   -0.22    2.33
   4   6   8   -1.02    2.21
  -4  -6   8   -1.70    3.43
  -4  -6   8   -1.58    2.96
  -4  -6  -8   -4.02    3.29
   4  -6  -8   -8.84    4.98
   4  -6  -8    7.38    3.79
   4   6  -8    1.15    2.51
  -4   6  -8    1.38    2.29
   4  -6   8   -1.12    3.25
  -4   6   8   -1.46    2.65
  -4   6   9   13.54    3.67
   4   6  -9   18.03    3.93
  -4  -6  -9   20.69    5.55
  -4  -6   9   18.26    4.62
   4   6   9   15.97    4.33
  -4  -6   9   14.37    3.77
   4  -6  -9    5.55    4.26
   4  -6  -9   15.52    4.35
  -4   6  -9   13.07    3.52
   4  -6   9   16.67    3.90
  -4   6  10   36.82    5.43
  -4  -6  10   38.57    6.11
   4   6  10   39.70    5.97
  -4  -6  10   39.96    5.68
   4  -6 -10   45.64    6.24
   4   6 -10   41.49    5.68
  -4  -6 -10   54.78    7.61
  -4   6 -10   42.58    5.81
   4  -6  10   35.99    5.62
   4  -6 -10   38.01    5.82
  -4   6  11   34.06    5.39
  -4  -6  11   33.44    5.90
  -4  -6  11   30.66    5.00
   4   6  11   32.39    5.57
   4  -6 -11   31.57    5.74
   4  -6 -11   33.02    5.46
  -4  -6 -11   34.96    6.67
  -4   6 -11   32.49    5.33
   4   6 -11   38.32    5.64
   4   6  12  168.48   12.34
  -4  -6  12  161.54   12.33
   4   6 -12  155.58   11.00
   4  -6 -12  149.98   11.10
   4  -6 -12  145.13   12.27
  -4   6 -12  161.41   11.32
  -4   6  12  157.68   11.46
  -4  -6 -12  169.86   13.01
  -4  -6 -12  169.90   11.62
   4  -6 -13   -5.09    4.18
  -4  -6  13    3.22    3.33
  -4   6  13   -2.10    2.71
   4   6  13   -1.05    3.04
  -4  -6 -13   -2.13    3.02
  -4  -6 -13   -3.71    3.87
   4   6 -13   -2.36    3.00
  -4   6 -13    4.89    3.22
   4   6 -14   24.61    5.37
  -4  -6  14   25.75    6.09
  -4   6  14   23.46    5.30
   4  -6 -14   18.03    5.14
  -4  -6 -14   14.89    4.69
  -4  -6 -14   31.82    6.87
   4   6  14   28.32    6.05
   4  -6 -14   15.37    4.42
  -4   6 -14   31.05    6.25
  -4  -6  15  287.74   17.31
   4   6  15  315.52   18.01
   4   6 -15  304.87   16.72
   4  -6 -15  312.36   16.92
   4  -6 -15  316.24   18.59
  -4  -6 -15  322.64   18.83
  -4   6 -15  313.86   17.26
  -4   6  15  304.48   16.94
  -4  -6 -15  326.03   16.84
   4  -6 -16    9.18    4.24
  -4  -6  16    4.14    4.04
   4   6  16    1.73    3.03
   4  -6 -16   -0.79    4.60
  -4   6  16    4.39    3.28
   4   6 -16    5.26    3.93
  -4  -6 -16    1.84    3.35
  -4  -6 -16    1.25    3.25
  -4   6 -16    3.84    3.45
   4   6 -17   18.12    4.82
  -4  -6  17   20.62    5.65
  -4  -6 -17   25.03    5.40
   4  -6 -17    6.57    4.26
  -4   6  17   18.37    4.68
  -4  -6 -17   17.89    4.93
   4  -6 -17   24.00    5.77
  -4   6 -17   15.12    4.29
  -4  -6  18   37.76    7.07
  -4  -6 -18   37.11    6.54
  -4  -6 -18   41.22    7.65
   4  -6 -18   20.98    5.44
  -4   6  18   30.95    6.02
   4   6 -18   33.11    6.26
   4  -6 -18   37.31    6.56
  -4   6 -18   34.88    6.72
   4  -6 -19   18.18    5.12
  -4  -6  19   12.22    4.41
  -4  -6 -19   16.06    4.85
   4  -6 -19    3.67    4.49
   4   6 -19   15.48    4.63
  -4  -6 -19   11.87    4.53
  -4   6 -19   12.86    5.04
  -4   6  19   14.48    4.63
  -4  -6 -20   10.02    4.22
  -4   6  20   14.53    4.97
  -4  -6  20    9.73    4.98
  -4   6 -20    8.26    3.97
   4  -6 -20    7.53    3.72
   4   6 -20   16.04    5.22
   4  -6 -20   17.57    5.27
  -4  -6 -20    8.90    4.98
  -4  -6 -21   40.88    7.33
  -4  -6  21   38.05    7.45
   4  -6 -21   35.69    7.56
   4   6 -21   46.47    7.91
  -4  -6 -21   53.20    9.03
   4  -6 -21   48.41    8.13
  -4   6 -21   52.38    8.86
   4  -6 -22   10.02    4.58
  -4  -6  22    5.90    3.27
   4  -6 -22    9.37    4.27
  -4  -6 -22   10.56    5.47
   4   6 -22   12.71    5.24
  -4  -6 -22   11.82    4.82
  -4   6 -22    6.43    4.50
  -4  -6  23    8.66    4.63
   4   6 -23    7.15    3.93
   4  -6 -23    3.77    3.93
   4  -6 -23   12.31    5.30
  -4  -6 -23   -0.29    4.08
  -4  -6 -23    5.06    4.28
  -4   6 -23   10.50    5.60
  -4  -6  24    1.66    3.29
   4  -6 -24   12.10    5.29
  -4  -6 -24   10.56    4.82
   4  -6 -24    4.21    3.16
  -4  -6 -24   10.67    5.11
   4   6 -24    7.57    4.73
  -4   6 -24   11.05    4.70
  -4  -6  25    6.19    4.03
   4   6 -25   -3.02    4.25
   4  -6 -25    3.15    3.36
  -4  -6 -25    5.80    4.53
  -4  -6  26   39.54    8.08
   4  -6 -26   47.41    8.50
  -4  -7   0   45.79    6.67
   4  -7   0   60.71    7.51
  -4   7   0   52.59    6.78
  -4   7   0   50.49    4.37
   4   7   0   37.28    4.75
  -4   7   0   48.98    3.03
  -4  -7   0   43.58    3.58
   4  -7   0   49.36    5.01
  -4   7   0   44.36    5.47
  -4   7  -1  125.93    7.19
  -4   7   1  119.96    6.79
  -4   7  -1  122.82    9.49
  -4   7   1  131.69    9.90
  -4  -7   1  122.37   10.06
  -4  -7  -1  125.71   10.39
   4  -7  -1  135.43   10.29
  -4   7   1  126.49    6.30
   4   7  -1  108.92    8.18
   4   7   1  121.42    8.82
  -4   7  -1  117.26    8.63
  -4   7   1  114.06    3.47
  -4   7   1  112.72    8.27
  -4  -7  -1  115.87    5.66
  -4   7  -1  127.31    5.67
  -4  -7   1  122.46    5.87
   4  -7  -1  131.91    7.23
   4  -7   1  131.19    8.14
  -4  -7   2   20.01    2.60
  -4   7   2   20.06    2.66
  -4  -7   2   25.23    5.89
  -4   7  -2   20.40    5.17
  -4  -7  -2   37.21    7.07
  -4  -7  -2   13.64    1.78
  -4   7   2   20.61    4.60
   4  -7  -2   40.48    6.58
   4   7  -2   18.03    3.49
  -4   7  -2   20.31    3.43
   4   7   2   20.64    4.29
  -4   7  -2   24.13    4.71
  -4   7  -2   21.77    2.91
  -4  -7  -2   13.94    2.20
   4  -7   2   28.34    4.84
  -4   7   2   12.39    3.21
  -4  -7  -3 1295.17   20.37
   4  -7  -3 1381.66   32.45
  -4   7  -3 1297.60   31.45
  -4   7   3 1319.67   19.10
  -4  -7   3 1406.83   33.62
   4   7  -3 1311.21   27.82
  -4   7   3 1364.20   31.13
  -4  -7  -3 1280.20   18.12
   4   7  -3 1288.00   22.25
  -4   7  -3 1298.30   25.15
  -4  -7   3 1326.23   32.25
  -4   7   3 1334.12   28.85
  -4   7  -3 1299.59   28.85
  -4   7  -3 1344.53   22.05
   4   7   3 1256.74   29.06
   4  -7   3 1370.65   27.84
   4  -7  -4  351.61   17.08
  -4   7  -4  355.75   16.84
  -4  -7   4  336.20   17.04
   4   7  -4  330.55   14.34
  -4   7   4  331.01    8.51
  -4   7   4  321.42   15.29
  -4  -7  -4  326.96    9.20
   4   7  -4  323.09   11.69
  -4  -7   4  337.91   16.74
   4   7   4  353.33   15.47
  -4   7   4  334.48   14.90
  -4   7  -4  333.00   11.98
   4  -7   4  364.52   15.04
   4  -7  -5   65.96    8.20
   4   7   5   47.52    5.99
   4   7  -5   56.87    6.27
  -4   7  -5   61.54    7.44
  -4  -7   5   58.57    7.40
  -4  -7  -5   53.20    3.84
   4   7  -5   48.66    4.81
  -4  -7   5   59.57    7.53
  -4   7   5   46.98    5.94
  -4   7   5   58.50    6.34
  -4   7  -5   61.00    5.54
   4  -7   5   58.67    6.56
   4   7   6   68.70    6.97
  -4   7   6   81.27    7.47
   4   7  -6   75.99    6.99
  -4  -7   6   72.79    8.12
   4  -7  -6   70.43    8.26
  -4   7   6   96.83    8.84
   4   7  -6   74.44    6.04
  -4  -7  -6   74.58    4.79
  -4  -7   6   83.69    8.53
  -4   7  -6   76.60    6.61
   4  -7   6   77.32    7.62
  -4  -7   7  244.23   14.42
   4   7  -7  238.80   12.45
  -4  -7   7  245.64   14.15
   4   7  -7  235.54   11.34
  -4   7   7  237.12   13.48
  -4  -7  -7  229.22    8.66
   4   7   7  235.85   13.28
  -4   7  -7  237.20   11.65
  -4   7   7  224.92   12.68
   4  -7   7  236.81   13.46
   4  -7  -7  251.21   15.11
  -4   7   8   -6.37    3.92
   4  -7  -8    4.50    4.73
  -4  -7   8    0.41    2.51
   4   7   8    1.30    2.75
  -4  -7   8   -4.92    4.41
   4   7  -8    3.93    2.71
  -4  -7  -8   -5.40    4.06
   4   7  -8    1.65    2.17
  -4   7  -8    0.24    1.94
  -4   7   8   -1.64    2.67
   4  -7  -8    6.64    4.07
   4  -7   8   -2.27    3.19
  -4   7   9    5.77    2.46
   4  -7  -9    3.48    4.57
  -4  -7   9    0.87    3.66
   4   7   9    7.55    3.40
  -4  -7   9    6.81    3.33
   4   7  -9    8.38    3.44
   4   7  -9    8.27    2.90
  -4  -7  -9    5.59    3.85
   4  -7  -9   15.32    4.66
  -4   7  -9    5.67    2.65
   4  -7   9   -0.26    3.50
   4  -7 -10   13.44    5.06
  -4   7  10   16.10    3.91
   4  -7 -10   11.83    4.24
  -4  -7  10   15.81    4.64
   4   7 -10   16.76    4.78
   4   7  10   17.01    4.11
  -4  -7  10   13.91    3.97
   4   7 -10   18.64    4.30
  -4  -7 -10   19.36    5.41
   4  -7  10   11.89    4.14
  -4   7 -10   17.32    4.06
  -4  -7  11  345.05   18.30
  -4  -7 -11  364.38   18.85
   4   7 -11  336.42   15.54
   4  -7 -11  331.24   16.32
  -4   7  11  351.01   17.47
  -4   7 -11  366.73   16.72
  -4  -7  11  343.55   16.70
   4  -7 -11  328.48   18.52
   4  -7  11  361.23   18.17
   4   7  11  341.53   17.70
  -4   7  12    8.46    2.79
  -4  -7  12    6.21    3.97
  -4  -7  12    7.31    2.78
   4   7  12    8.95    3.62
   4   7 -12    6.23    2.62
   4  -7 -12    3.99    3.02
  -4  -7 -12    9.88    4.89
   4  -7 -12    5.70    4.57
  -4   7 -12   12.83    4.28
   4  -7  12    3.11    3.94
   4   7  13  207.90   14.67
  -4  -7  13  217.06   15.04
   4   7 -13  215.31   13.27
   4  -7 -13  213.51   13.43
  -4  -7 -13  220.69   15.47
  -4   7  13  212.57   14.35
  -4   7 -13  236.61   14.44
   4  -7 -13  212.48   15.59
  -4  -7  13  234.97   13.88
   4  -7  13  239.56   15.69
  -4   7  14   29.24    6.28
  -4  -7  14   21.79    5.98
   4  -7 -14   30.86    5.84
  -4  -7 -14   32.58    7.45
   4   7  14   27.35    6.33
   4  -7 -14   39.73    7.86
  -4   7 -14   33.25    6.47
   4   7 -14   27.26    5.62
   4  -7  14   41.95    7.67
  -4  -7  15  278.96   17.30
   4   7  15  263.29   17.17
   4   7 -15  280.62   16.11
   4  -7 -15  265.70   15.65
  -4  -7 -15  272.21   18.07
  -4   7 -15  269.53   16.35
   4  -7 -15  280.55   18.33
  -4   7  15  274.81   16.75
  -4  -7  16   15.59    4.97
  -4  -7 -16   22.10    5.69
  -4   7  16   20.25    5.29
   4   7  16   20.74    5.70
   4   7 -16   15.07    4.53
   4  -7 -16   17.40    4.88
  -4  -7 -16   23.68    6.49
   4  -7 -16   18.70    4.64
  -4   7 -16   22.01    5.53
  -4  -7  17   19.14    6.10
   4  -7 -17   12.54    4.87
   4  -7 -17    7.44    3.25
  -4   7  17    6.31    3.64
  -4  -7 -17   10.63    3.90
   4   7 -17   15.67    4.68
   4   7  17   15.36    4.92
  -4  -7 -17   15.92    5.94
  -4   7 -17   16.53    5.02
  -4  -7 -18   30.54    5.75
   4   7  18   23.76    6.11
  -4  -7 -18   31.88    7.28
  -4  -7  18   25.71    5.92
  -4   7  18   23.62    5.84
   4   7 -18   25.80    5.82
   4  -7 -18   21.02    5.44
   4  -7 -18   17.27    5.04
  -4   7 -18   26.08    6.10
  -4  -7  19   22.58    5.86
   4  -7 -19   28.60    6.25
  -4  -7 -19   32.35    6.24
  -4   7  19   24.08    5.91
   4   7 -19   38.16    7.19
  -4  -7 -19   24.91    6.94
   4  -7 -19   27.70    6.75
  -4   7 -19   24.36    5.80
  -4  -7  20    9.82    5.58
  -4   7  20    6.01    3.51
  -4  -7 -20    6.63    4.54
   4  -7 -20    4.30    3.98
   4  -7 -20    8.27    4.27
   4   7 -20    5.81    3.13
  -4   7 -20    9.11    5.11
  -4  -7 -20    8.02    4.33
  -4   7  21  149.28   14.05
  -4  -7 -21  145.10   14.56
   4   7 -21  137.77   13.66
   4  -7 -21  135.98   13.10
  -4  -7 -21  144.45   12.71
  -4   7 -21  139.64   13.99
   4  -7 -21  145.67   14.84
  -4  -7  21  151.52   14.57
  -4  -7  22   11.70    5.24
   4   7 -22   15.29    5.78
   4  -7 -22   20.03    6.09
   4  -7 -22   10.35    5.54
  -4   7 -22   10.70    4.95
  -4  -7 -22   16.05    5.77
  -4  -7  23   12.20    5.11
   4  -7 -23   16.12    5.31
   4   7 -23    7.14    4.68
  -4  -7 -23   15.23    6.23
  -4   7 -23   15.16    5.13
   4  -7 -23   10.59    5.08
  -4  -7  24   22.26    6.26
  -4  -7 -24   33.84    7.87
   4   7 -24   28.41    7.13
   4  -7 -24   35.01    7.39
   4  -7 -24   26.46    7.36
   4  -7 -25   51.07    8.96
   4  -7 -26    0.77    2.71
  -4   8   0  183.69   12.59
  -4  -8   0  205.43   13.66
   4   8   0  166.14   10.89
  -4   8   0  181.20    7.94
  -4   8   0  167.74   10.32
  -4   8   0  178.41    6.13
  -4  -8   0  174.85    6.06
   4  -8   0  178.97    9.42
  -4  -8  -1   12.52    1.71
  -4  -8   1    8.34    3.56
  -4  -8  -1   11.69    4.20
  -4   8  -1   15.68    4.74
  -4   8   1    8.21    3.50
  -4   8   1   15.20    2.44
  -4   8  -1   12.16    2.70
   4   8   1   11.42    3.52
   4   8  -1    5.58    2.56
  -4   8   1   12.22    1.36
   4  -8   1   13.10    3.15
  -4   8  -1   12.61    2.02
  -4   8  -1    3.71    2.32
  -4   8   1    1.93    2.94
   4  -8  -1   12.87    3.04
   4  -8   2   -0.09    2.04
  -4  -8  -2    0.01    0.82
   4  -8  -2   10.16    5.11
   4   8   2    0.43    2.56
  -4  -8   2   -0.82    3.74
  -4  -8  -2    3.11    3.85
  -4   8  -2   -2.03    3.48
  -4   8   2    3.84    2.91
  -4   8   2   -2.91    3.56
  -4   8  -2   -0.69    1.75
   4   8  -2   -3.24    3.29
  -4   8  -2   -0.16    1.36
  -4   8  -2    0.37    2.33
   4  -8  -2   -0.56    1.54
  -4   8  -3  269.75   15.45
  -4  -8   3  273.72   16.10
   4   8  -3  263.18   13.72
  -4  -8  -3  284.98   16.11
  -4   8   3  265.84   15.12
   4  -8  -3  295.67   16.39
  -4   8  -3  257.85   11.43
   4   8   3  267.16   14.36
  -4   8  -3  271.59   13.65
  -4  -8  -3  248.79    8.11
  -4   8   3  265.27   13.44
  -4   8  -3  271.96   10.32
   4  -8  -3  263.76    9.47
   4   8  -3  270.14    9.93
   4  -8   3  282.37   13.44
  -4   8  -4   83.68    9.31
   4   8  -4   69.63    7.42
   4  -8  -4   88.66    9.70
  -4  -8   4   84.00    9.23
  -4  -8   4   77.13    8.97
   4   8  -4   76.59    5.88
   4   8   4   75.64    8.07
  -4   8   4   67.09    7.88
  -4   8  -4   83.97    8.10
  -4  -8  -4   77.97    4.90
  -4   8   4   70.30    6.92
  -4   8  -4   78.10    6.02
   4  -8   4   81.86    7.92
   4  -8   5    1.33    2.54
  -4   8   5   -0.91    2.16
   4  -8  -5    7.20    5.43
  -4   8  -5    3.28    3.87
  -4  -8   5   -0.97    4.17
   4   8  -5    1.82    2.86
   4   8  -5   -0.62    1.89
  -4   8   5   -7.07    4.71
   4   8   5    2.95    3.19
  -4   8  -5    1.16    1.59
  -4  -8   5    8.57    4.78
   4  -8   6   57.88    6.85
   4  -8  -6   70.40    9.24
   4   8  -6   65.47    7.31
  -4   8  -6   68.36    8.57
  -4  -8   6   60.09    8.09
  -4   8   6   71.15    8.18
   4   8  -6   63.02    5.58
   4   8   6   59.27    7.41
  -4  -8   6   60.92    7.95
  -4   8  -6   62.51    6.14
  -4   8   6   58.01    6.67
   4  -8  -7  178.39   13.48
  -4  -8   7  175.47   13.14
  -4   8  -7  176.40   13.18
   4   8  -7  159.52   11.22
  -4  -8   7  154.79   11.92
   4   8  -7  159.51    9.25
  -4   8   7  172.52   12.47
  -4   8  -7  160.74   10.03
   4   8   7  146.62   11.23
  -4   8   7  149.68   10.50
   4  -8   7  172.01   11.72
   4  -8  -8  114.50   11.17
  -4  -8   8  104.90   10.44
   4   8  -8   93.54    8.84
   4   8  -8  109.60    8.16
  -4   8   8  113.69   10.27
  -4  -8   8  104.80   10.18
   4   8   8  100.04    9.36
  -4   8  -8  106.96    8.57
   4  -8   8  106.31    9.66
   4   8  -9   25.49    4.52
  -4  -8   9   25.49    5.29
   4   8   9   25.96    5.34
  -4  -8   9   28.92    6.35
   4   8  -9   26.37    5.31
   4  -8  -9   29.75    6.64
  -4   8  -9   27.35    4.84
  -4   8   9   25.42    5.36
   4  -8   9   25.38    5.35
  -4   8  10    1.96    3.16
  -4  -8  10    5.32    3.59
   4   8  10    4.88    2.61
  -4  -8  10    4.03    3.10
   4   8 -10    4.17    3.39
   4   8 -10    7.12    2.89
   4  -8 -10    8.58    4.53
   4  -8 -10   11.18    4.33
  -4  -8 -10    6.24    3.60
  -4   8 -10    3.00    2.88
   4  -8  10    1.66    3.30
  -4   8  11   27.64    5.29
   4   8 -11   27.65    4.84
  -4  -8  11   23.71    5.69
   4   8 -11   21.78    4.85
   4   8  11   28.00    5.93
  -4  -8  11   31.88    5.68
   4  -8 -11   26.28    6.26
  -4  -8 -11   30.66    6.41
   4  -8 -11   29.22    5.89
  -4   8 -11   32.79    5.49
   4  -8  11   34.60    6.36
  -4   8  12    7.43    3.53
   4   8 -12   15.50    4.67
  -4  -8  12    7.37    4.34
   4   8  12   17.77    4.64
   4  -8 -12   14.86    5.33
  -4  -8  12   14.58    4.06
  -4  -8 -12   12.14    4.21
   4  -8 -12   16.51    4.55
   4   8 -12   18.17    4.36
  -4   8 -12   14.40    3.87
   4  -8  12   10.68    4.10
  -4  -8  13    7.32    4.30
  -4   8  13    6.64    2.86
   4  -8 -13   12.82    4.81
   4   8  13   10.03    4.05
  -4  -8  13    9.08    3.72
   4   8 -13    8.84    3.08
   4  -8 -13    9.65    3.71
  -4  -8 -13   13.46    4.96
  -4   8 -13    7.87    3.38
   4  -8  13    9.56    4.31
   4   8 -14    6.44    3.04
  -4  -8  14    2.36    3.43
  -4   8  14   -0.74    2.54
   4  -8 -14    1.30    3.92
   4   8  14    1.31    2.71
  -4  -8 -14    8.70    5.22
  -4  -8  14    1.58    2.50
   4  -8 -14    5.55    3.70
  -4   8 -14    3.79    2.70
   4  -8  14    2.63    3.18
  -4  -8  15   28.32    6.26
   4  -8 -15   23.97    6.60
  -4   8  15   25.92    5.92
   4   8  15   28.82    6.37
   4   8 -15   24.28    5.26
   4  -8 -15   27.93    5.75
  -4  -8 -15   24.36    6.44
  -4   8 -15   31.36    6.05
   4  -8  15   27.57    6.46
  -4  -8  16    9.68    4.72
   4  -8 -16    6.46    3.59
  -4   8  16    7.23    3.55
   4   8  16   11.50    5.04
   4   8 -16    5.84    3.44
   4  -8 -16   10.43    3.85
  -4  -8 -16    9.72    5.03
  -4   8 -16   16.71    5.15
   4  -8  16    6.92    4.47
  -4  -8  17   64.49    9.52
   4  -8 -17   69.91   10.24
   4   8 -17   64.22    8.63
   4  -8 -17   68.53    8.45
   4   8  17   74.69   10.13
  -4  -8 -17   78.22   10.31
  -4   8 -17   64.03    8.89
  -4   8  17   79.66   10.01
  -4  -8  18    7.13    4.42
   4  -8 -18   14.20    5.27
   4  -8 -18    7.12    3.50
  -4  -8 -18   17.58    5.66
  -4   8  18   10.24    4.04
   4   8 -18    8.48    4.14
   4   8  18   12.27    4.89
  -4   8 -18    7.56    3.82
  -4  -8  19   24.20    6.40
   4  -8 -19   22.37    6.92
  -4   8  19   17.42    5.12
   4   8 -19   18.72    5.35
   4   8  19   18.21    5.41
   4  -8 -19   14.48    4.14
  -4  -8 -19   16.41    5.38
  -4   8 -19   11.50    4.56
   4   8 -20    0.34    2.64
  -4  -8  20    1.54    3.40
   4  -8 -20   -0.70    3.36
  -4   8  20    5.25    3.77
  -4  -8 -20    2.66    4.31
   4  -8 -20   -4.22    3.49
  -4   8 -20    5.38    3.89
  -4  -8  21   49.84    8.89
  -4   8  21   63.91    9.74
   4  -8 -21   58.15   10.08
   4  -8 -21   49.80    7.91
   4   8 -21   66.52    9.69
  -4  -8 -21   54.30    9.47
  -4   8 -21   60.91    9.89
  -4  -8  22    2.69    4.13
   4  -8 -22   -0.22    4.17
   4   8 -22    7.49    4.50
  -4   8  22    9.11    5.19
  -4  -8 -22    8.55    5.71
  -4   8 -22    6.19    4.18
  -4   8  23   12.69    5.22
  -4  -8 -23   11.99    4.78
  -4   8 -23   17.56    6.27
   4   8 -23   10.50    4.84
   4   8 -24    5.19    3.50
  -4  -9   0  528.93   22.78
  -4   9   0  529.58   22.36
   4   9   0  512.71   20.66
  -4   9   0  513.30   13.13
  -4   9   0  514.65   18.21
   4  -9   0  531.85   17.09
  -4  -9   1  202.98   14.32
  -4   9  -1  191.44   13.89
  -4  -9  -1  191.41   14.15
  -4   9   1  184.55   13.25
   4   9  -1  180.80   12.22
   4   9   1  191.82   12.89
  -4   9  -1  183.94    8.69
  -4   9  -1  181.18   10.87
  -4   9   1  186.53   11.06
   4  -9  -1  187.73    9.84
   4  -9   1  191.59   10.93
  -4   9  -2  172.32   10.59
  -4  -9   2  191.60   13.77
  -4   9  -2  202.81   14.36
  -4  -9  -2  205.44   14.22
  -4   9   2  167.56   12.66
   4   9  -2  180.31   12.30
   4   9   2  183.20   12.54
  -4   9  -2  181.39    9.19
  -4   9   2  181.02   10.93
  -4   9  -2  191.67    8.42
   4  -9  -2  190.74    9.43
   4  -9   2  186.70   11.17
  -4  -9   3  311.22   17.93
  -4   9  -3  318.81   17.72
  -4  -9  -3  344.35   18.38
   4   9  -3  291.33   15.72
  -4   9   3  300.17   16.96
   4   9   3  300.71   16.07
  -4   9  -3  302.94   12.47
  -4   9  -3  313.29   14.43
  -4   9   3  307.13   14.33
  -4   9  -3  315.70   11.58
   4  -9  -3  322.26   11.30
   4  -9   3  321.57   15.06
  -4  -9   4  424.88   20.78
  -4   9  -4  438.69   20.81
   4   9  -4  383.14   17.96
  -4  -9  -4  436.60   20.45
  -4   9   4  388.03   19.41
   4   9   4  423.00   19.25
  -4   9  -4  390.75   16.42
  -4   9   4  426.50   17.19
  -4   9  -4  411.09   14.15
   4  -9   4  420.13   17.80
   4   9   5   -0.34    2.75
   4  -9   5    3.48    2.92
  -4   9   5   -3.85    3.28
  -4  -9   5   -1.21    3.77
  -4   9  -5    0.48    3.28
   4  -9  -5    6.44    5.45
  -4  -9  -5   10.32    5.54
   4   9  -5   -2.58    3.27
  -4  -9   5    5.57    4.82
   4   9  -5   -1.12    1.53
  -4   9  -5    5.74    3.56
  -4   9   5  -10.12    5.86
  -4   9  -5   -0.69    1.80
   4   9   6  140.76   11.63
  -4  -9   6  136.44   12.29
  -4   9  -6  141.94   12.52
   4   9  -6  136.18   11.05
  -4   9  -6  143.58    9.38
   4  -9  -6  163.76   13.89
  -4  -9  -6  174.01   13.42
  -4   9   6  154.41   12.58
   4   9  -6  143.36    8.17
  -4  -9   6  159.77   12.88
  -4   9   6  135.03   10.13
   4  -9   6  152.44   11.47
  -4  -9   7  475.22   22.55
  -4   9  -7  464.20   22.29
   4   9  -7  433.88   19.62
   4  -9  -7  506.54   23.33
  -4   9   7  463.90   21.43
   4   9  -7  449.48   15.11
  -4  -9   7  454.60   20.86
   4   9   7  435.37   20.55
  -4   9  -7  446.45   17.12
   4  -9   7  438.69   19.82
   4  -9   8   61.16    8.05
  -4  -9   8   57.72    8.01
   4   9   8   46.49    7.30
  -4   9  -8   54.14    8.64
  -4  -9   8   62.14    8.97
   4   9  -8   50.12    7.04
   4   9  -8   56.27    5.79
  -4   9   8   59.19    8.26
  -4   9  -8   55.39    6.52
   4  -9  -8   63.01    9.90
  -4  -9   9   53.99    7.71
   4   9   9   60.02    8.08
   4  -9  -9   62.26    9.30
  -4  -9   9   49.16    7.84
   4  -9   9   54.80    7.71
   4   9  -9   42.67    6.48
   4   9  -9   53.34    5.91
  -4   9  -9   56.10    6.65
  -4   9   9   56.67    8.14
   4  -9  10   20.13    5.38
  -4   9  10    8.45    3.49
  -4  -9  10   11.39    4.24
  -4  -9  10   14.51    5.15
   4   9  10   11.62    4.08
   4   9 -10   11.71    4.07
   4  -9 -10   19.01    6.02
   4   9 -10   17.96    4.04
  -4   9 -10   18.75    4.35
   4  -9  11   56.56    7.70
  -4   9  11   59.51    8.26
  -4  -9  11   67.18    9.17
   4  -9 -11   61.91    8.85
   4   9  11   61.80    8.36
  -4  -9  11   59.01    7.57
   4   9 -11   58.15    8.03
   4   9 -11   60.06    6.65
  -4   9 -11   58.25    7.21
  -4   9  12    1.59    2.46
   4  -9 -12    6.23    3.93
  -4  -9  12    4.36    4.34
   4   9 -12    6.38    3.44
   4   9  12    7.84    4.15
   4  -9 -12   13.52    4.48
  -4  -9  12    9.79    3.53
  -4  -9 -12    8.47    4.78
   4   9 -12   10.29    3.28
  -4   9 -12    6.58    3.03
   4  -9  12    6.35    4.53
   4  -9 -13   18.71    6.47
  -4   9  13    4.10    2.93
  -4  -9  13    6.57    3.84
   4   9 -13    5.15    3.45
   4   9  13    6.74    3.18
  -4  -9  13    7.93    3.67
   4   9 -13    4.59    2.87
   4  -9 -13    7.71    3.60
  -4  -9 -13    8.42    4.39
  -4   9 -13    5.33    2.95
   4  -9  13    4.27    3.76
  -4  -9  14   54.23    8.73
  -4   9  14   58.03    8.51
   4   9 -14   49.01    7.41
   4   9  14   52.64    8.29
  -4  -9  14   54.94    7.33
   4   9 -14   46.25    6.64
   4  -9 -14   47.15    6.81
  -4  -9 -14   56.22    8.60
  -4   9 -14   50.46    7.60
   4  -9 -14   56.71    9.33
   4  -9  14   60.26    9.23
   4   9  15   70.49    9.81
   4   9 -15   79.78    9.57
  -4  -9  15   63.76    9.39
   4   9 -15   71.00    8.30
   4  -9 -15   76.29    8.57
  -4  -9 -15   72.69    9.97
  -4   9  15   69.13    9.36
  -4   9 -15   77.69    9.41
   4  -9 -15   83.42   11.13
  -4  -9  15   71.53    8.37
   4  -9  15   68.29    9.42
  -4  -9  16    5.54    4.18
  -4   9  16    2.61    3.11
   4   9  16   -0.76    3.63
   4   9 -16    6.96    3.62
  -4  -9 -16    6.62    5.37
   4  -9 -16    7.16    5.43
  -4   9 -16    1.15    2.55
   4  -9  16    1.51    3.69
  -4  -9  17   98.54   12.02
   4  -9 -17   94.07   12.34
   4   9  17   84.03   11.25
  -4  -9 -17   85.92   10.96
   4   9 -17   91.20    9.97
  -4   9 -17   87.70   10.48
  -4   9  17   84.90   10.74
   4  -9  17   94.76   11.81
  -4  -9  18   43.90    8.21
  -4   9  18   45.64    8.16
  -4  -9 -18   47.73    8.69
   4   9 -18   42.61    7.41
   4  -9 -18   52.97    9.59
  -4   9 -18   49.27    8.21
   4  -9  18   48.87    9.10
   4   9  18   44.16    8.44
  -4  -9  19   -3.62    4.86
  -4   9  19   -3.20    3.69
   4   9  19    0.24    2.82
   4   9 -19   -2.68    2.79
  -4  -9 -19   -6.24    4.87
   4  -9 -19    0.64    4.26
  -4   9 -19   -0.62    3.28
  -4  -9  20    5.13    3.74
  -4   9  20    2.90    3.38
   4   9 -20   -3.13    3.77
   4   9  20   13.09    5.24
  -4  -9 -20    6.64    4.49
   4  -9 -20    6.04    4.47
  -4   9 -20    2.96    3.21
  -4   9  21   49.74    8.90
   4   9 -21   41.31    7.66
  -4  -9 -21   49.00    9.15
   4   9  21   46.81    9.11
  -4   9 -21   46.56    8.88
  -4   9  22   47.17    8.85
   4   9 -22   33.01    7.22
  -4  -9 -22   37.31    8.18
  -4   9 -22   39.13    8.46
   4   9 -23    3.80    3.38
  -4  10   0   32.46    4.83
   4 -10   0   33.32    4.81
  -4 -10   0   41.61    7.20
  -4  10   0   32.95    6.57
   4  10   0   24.48    5.20
   4 -10  -1    9.96    2.91
   4 -10   1    9.07    2.92
  -4  10   1    9.93    3.21
  -4 -10   1    9.29    4.55
  -4 -10  -1   11.32    4.86
  -4  10   1   11.30    4.08
   4  10  -1    4.49    2.63
   4  10   1   13.10    4.14
  -4  10  -1   12.21    4.83
  -4  10  -1    1.46    2.16
  -4  10   2    7.90    2.97
  -4 -10   2    9.82    4.13
  -4 -10  -2    9.77    4.74
   4 -10   2    8.87    2.95
  -4  10  -2   15.92    5.54
  -4  10   2    9.45    3.38
   4  10  -2    9.30    3.41
   4  10   2    7.11    3.73
  -4  10  -2    8.41    2.77
   4 -10   3   -1.46    2.45
  -4  10   3    0.81    1.94
   4  10  -3    2.97    2.93
  -4 -10   3    1.80    3.53
  -4 -10  -3    6.47    4.75
  -4  10  -3   10.95    5.47
   4  10   3   -0.26    3.33
  -4  10   3    0.55    2.97
  -4  10  -3   -0.13    2.06
   4 -10   4    2.63    2.63
  -4  10   4   -1.05    2.06
   4  10  -4    1.55    2.99
  -4 -10   4    0.61    3.20
  -4 -10  -4    1.92    3.66
  -4  10  -4   -3.32    4.13
  -4  10   4   -4.30    4.39
  -4  10  -4    1.26    2.51
   4  10   4   -0.67    2.90
   4 -10   5    0.64    2.70
  -4  10   5    1.55    2.71
  -4 -10   5    3.08    3.66
   4  10  -5    3.39    3.46
  -4 -10  -5    6.49    4.36
  -4  10  -5   -2.83    4.13
  -4  10  -5    4.30    3.06
  -4 -10   5    2.85    3.77
  -4  10   5   -2.42    4.07
   4  10   5    0.85    2.81
  -4 -10   6  136.28   12.91
  -4  10  -6  145.96   13.44
   4  10  -6  135.94   11.56
  -4 -10  -6  148.73   12.82
  -4  10   6  148.82   13.05
   4  10   6  148.89   12.64
  -4 -10   6  134.82   12.28
  -4  10  -6  138.54   10.13
  -4  10  -6  137.24    9.39
   4 -10   6  130.24   10.88
  -4 -10   7    9.08    4.57
   4 -10   7    6.76    4.20
   4  10   7    2.99    2.95
  -4 -10   7    1.88    4.00
  -4  10  -7    5.03    3.97
  -4 -10  -7   11.20    4.95
   4  10  -7    4.61    3.62
  -4  10   7    7.46    4.74
  -4  10  -7    6.05    2.99
  -4 -10   8  149.88   13.61
  -4  10  -8  140.04   13.26
   4  10  -8  136.81   11.81
  -4 -10  -8  152.35   12.98
   4 -10  -8  153.12   14.01
  -4  10   8  129.79   12.32
  -4 -10   8  137.59   12.20
   4  10   8  138.58   12.45
  -4  10  -8  137.87   10.19
   4 -10   8  154.34   12.46
   4 -10   9    1.98    2.84
  -4 -10   9   -1.59    2.53
   4  10   9   -3.34    3.34
  -4 -10   9   -2.20    4.13
  -4  10  -9    3.43    3.45
   4  10  -9   -5.84    3.48
  -4  10  -9   -0.74    1.96
   4 -10  -9    4.61    4.91
  -4  10   9   -0.35    3.06
   4 -10  10    4.82    3.84
  -4 -10  10    2.67    3.01
   4  10  10   -2.32    3.30
  -4 -10  10    0.99    3.56
   4 -10 -10    4.88    3.87
  -4  10 -10    2.32    3.63
   4  10 -10    2.52    2.78
  -4  10 -10   -1.36    2.85
  -4  10  10   -0.95    3.50
  -4  10 -11   99.88   11.84
   4  10 -11   72.94    9.03
  -4 -10  11   78.12   10.37
   4 -10 -11   96.41   11.94
  -4  10  11   87.83   10.61
  -4 -10  11   85.08    9.49
   4  10  11   84.94   10.29
  -4  10 -11   77.50    8.45
   4 -10  11   77.90    9.74
   4 -10  12   13.58    5.32
  -4  10  12   11.34    4.33
  -4 -10  12   15.15    6.05
   4  10  12   13.52    4.97
  -4 -10  12   13.63    4.45
   4  10 -12    6.35    3.37
  -4  10 -12   10.18    3.52
   4 -10 -13    8.02    5.39
  -4  10  13    3.55    2.80
  -4 -10  13    0.08    3.86
   4  10  13    7.12    3.69
   4  10 -13    0.60    3.14
  -4 -10  13    9.14    3.85
  -4  10 -13   -0.77    2.57
   4 -10  13   -1.40    3.88
  -4 -10  14   12.66    4.95
  -4  10  14    9.92    4.54
   4  10 -14   11.93    4.52
   4  10  14    5.21    3.53
  -4 -10  14    8.52    3.09
  -4  10 -14    7.75    3.58
   4 -10 -14   14.73    6.43
   4 -10  14    6.74    3.60
  -4 -10  15    3.65    3.24
  -4  10  15   -3.07    3.25
   4  10 -15    8.39    4.47
   4  10  15   -2.36    3.64
  -4 -10 -15    1.61    3.39
   4 -10 -15    3.51    4.74
  -4  10 -15    1.57    3.20
   4 -10  15   -1.91    3.38
  -4 -10  16    6.66    3.90
   4  10 -16    9.61    4.28
  -4  10  16    3.38    3.05
   4  10  16   11.24    4.74
  -4 -10 -16    5.42    3.52
   4 -10 -16   19.04    7.34
  -4  10 -16    4.82    3.18
   4 -10  16    8.80    4.44
  -4 -10  17    2.23    3.13
   4  10 -17    1.05    2.89
   4 -10 -17    9.38    5.47
  -4  10  17   -0.61    3.09
   4  10  17    0.74    3.16
  -4 -10 -17   -1.47    3.68
  -4  10 -17    3.73    3.45
   4 -10  17    8.82    5.38
  -4 -10  18   21.80    6.65
   4  10 -18   31.91    6.91
  -4  10  18   24.54    6.54
   4  10  18   31.64    7.34
  -4 -10 -18   34.00    7.67
   4 -10 -18   39.92    9.60
  -4  10 -18   15.71    4.74
   4 -10  18   22.20    7.04
  -4  10  19    6.27    3.99
   4  10  19    5.72    4.00
  -4 -10 -19    6.35    4.49
  -4  10 -19    8.18    4.37
   4 -10  19    1.92    4.04
  -4  10  20   14.68    5.29
  -4 -10 -20   11.87    5.74
  -4  10 -20    1.11    3.13
  -4 -10 -21   -0.15    3.72
  -4  10 -21   -4.45    4.50
  -4 -11   0  247.48   17.09
  -4  11   0  242.00   17.14
   4  11   0  236.86   15.83
   4 -11   1   30.54    5.01
  -4 -11   1   29.51    6.89
  -4 -11  -1   22.48    4.76
  -4  11   1   20.35    5.44
  -4  11  -1   30.37    6.33
   4  11  -1   24.27    5.63
   4  11   1   40.94    7.02
   4 -11   2    1.76    2.23
   4  11  -2    0.57    3.72
  -4  11   2   -2.60    4.21
  -4 -11   2   -2.07    5.05
  -4 -11  -2    3.27    3.11
  -4  11  -2   10.35    4.79
   4  11   2    3.93    3.26
   4 -11   3   41.88    6.22
  -4 -11   3   44.40    8.23
  -4 -11  -3   45.18    8.21
  -4  11  -3   42.33    8.09
   4  11  -3   39.46    6.81
  -4  11   3   45.81    7.87
   4  11   3   54.29    8.20
  -4 -11   4  301.47   19.08
  -4  11  -4  313.03   19.71
  -4 -11  -4  325.04   19.27
   4  11  -4  294.90   17.79
  -4  11   4  271.55   18.39
   4  11   4  284.66   18.03
   4 -11   4  284.82   15.95
  -4 -11   5   61.91    9.66
  -4 -11  -5   52.01    8.31
  -4  11  -5   40.38    7.76
   4  11  -5   53.22    8.11
  -4  11   5   47.97    8.31
   4 -11   5   60.72    7.79
   4  11   5   44.45    7.57
  -4 -11   6  199.67   15.99
  -4  11  -6  195.87   16.09
   4  11  -6  202.60   15.05
  -4 -11  -6  181.76   14.82
   4  11   6  198.85   15.43
  -4  11   6  203.99   16.14
  -4 -11   6  187.66   14.98
   4 -11   6  209.60   14.31
   4 -11   7   13.26    4.63
   4  11   7   11.79    4.38
  -4 -11   7   17.28    5.85
  -4  11  -7   15.95    5.75
  -4 -11  -7    7.07    4.49
   4  11  -7    9.15    4.19
  -4  11   7    5.19    3.64
  -4 -11   7   15.74    5.52
   4 -11   8    1.84    2.70
  -4 -11   8    7.03    4.09
   4  11   8    2.29    2.81
  -4 -11   8    3.13    4.12
  -4  11  -8    4.25    4.38
  -4 -11  -8    1.23    3.54
   4  11  -8    0.22    2.71
  -4  11   8   -0.05    3.91
   4 -11   9   18.77    5.60
  -4 -11   9   19.11    5.13
   4  11   9   13.16    4.62
  -4 -11   9   17.55    5.64
  -4  11  -9   19.65    6.16
  -4 -11  -9   25.35    6.24
   4  11  -9   23.00    5.69
  -4  11   9    9.18    3.99
  -4 -11  10  157.57   14.80
  -4  11 -10  147.39   14.61
   4  11 -10  163.74   13.86
  -4 -11 -10  134.59   13.17
  -4  11  10  148.96   14.10
  -4 -11  10  144.09   13.17
   4  11  10  152.19   13.96
   4 -11  10  154.80   13.68
   4 -11  11    1.92    3.68
  -4  11  11    1.27    3.53
  -4 -11  11    2.69    3.02
  -4 -11  11   10.16    4.96
   4  11  11    7.07    4.70
  -4  11 -11    5.37    4.89
  -4 -11 -11    7.35    4.06
   4  11 -11   -3.64    3.87
  -4  11 -11    4.22    3.01
   4 -11  12   14.90    4.72
  -4  11  12   18.20    5.88
  -4 -11  12   18.46    5.55
  -4 -11  12   11.70    4.11
  -4  11 -12   24.57    6.94
   4  11  12   11.44    4.44
   4  11 -12    8.58    3.93
  -4 -11 -12   24.06    6.10
  -4  11 -12   13.23    4.00
   4 -11  13   16.39    5.71
  -4  11  13    6.74    3.84
  -4  11 -13   11.95    5.53
  -4 -11  13    6.98    4.43
   4  11  13    7.73    3.35
  -4 -11  13   13.45    4.78
   4  11 -13    2.71    3.15
   4 -11 -13   16.13    6.39
  -4  11 -13    7.51    3.44
  -4  11  14   65.66   10.10
  -4 -11  14   64.50   10.03
   4  11 -14   73.40   10.26
   4 -11 -14   82.74   12.01
  -4  11 -14   69.48    8.94
   4  11  14   68.42   10.02
   4 -11  14   72.29   10.38
   4 -11 -15    3.80    4.02
  -4 -11  15   -0.61    4.10
  -4  11  15   -1.46    3.74
   4  11 -15   -1.66    3.19
   4  11  15    0.83    3.13
  -4  11 -15   -5.11    3.06
   4 -11  15    1.56    3.93
  -4 -11  16   -3.41    4.36
  -4  11  16    1.02    2.72
   4  11 -16    1.51    2.83
   4  11  16   -1.11    2.64
   4 -11 -16   11.20    6.59
  -4  11 -16    1.28    2.96
   4 -11  16    2.53    3.32
  -4  11  17   -3.48    3.76
   4  11 -17    3.18    3.29
   4  11  17   -1.89    4.05
  -4  11 -17    0.79    2.99
   4 -11  17    5.62    4.60
   4  11 -18   21.99    6.35
  -4  11  18   14.41    5.18
  -4  11 -18   13.42    4.44
  -4 -11 -19   -4.33    4.74
  -4  11 -19    2.02    3.30
  -4 -11 -20    2.73    4.23
  -4 -12   0   34.40    7.37
  -4  12   0   27.06    6.55
   4  12   0   27.08    5.96
  -4 -12   1    5.71    4.01
  -4 -12  -1    5.59    3.66
   4  12  -1   -4.07    4.05
  -4  12  -1   -3.89    3.94
  -4  12   1   -4.00    4.37
   4  12   1    1.43    2.67
  -4 -12   2   10.87    5.02
  -4 -12  -2   -3.52    4.75
  -4  12  -2    1.02    3.94
  -4  12   2    6.57    3.54
   4  12  -2    2.65    2.89
   4  12   2   10.03    4.65
  -4  12  -3   40.76    8.13
  -4 -12   3   55.84    9.53
  -4 -12  -3   47.27    8.38
   4  12  -3   42.33    7.35
   4  12   3   43.44    7.64
  -4  12   3   42.02    7.85
   4 -12   4    0.44    2.56
  -4 -12   4    6.87    5.10
  -4 -12  -4    5.28    4.30
  -4  12  -4    4.28    4.48
   4  12  -4   -4.62    4.12
  -4  12   4    0.62    3.01
   4  12   4    1.10    3.02
   4 -12   5    1.46    2.90
  -4 -12   5    4.50    4.79
  -4 -12  -5   -2.84    4.07
  -4  12  -5    4.31    3.95
   4  12  -5   -0.54    2.95
  -4  12   5   -3.58    4.57
   4  12   5    0.23    3.01
   4  12   6   18.34    4.92
   4 -12   6   26.85    5.55
  -4 -12   6   24.24    6.53
  -4 -12  -6   23.52    6.13
  -4  12  -6   21.07    6.49
   4  12  -6   20.41    5.46
  -4 -12   6   15.30    5.17
  -4  12   6   21.46    5.72
   4 -12   7    4.50    3.40
   4  12   7    5.98    3.81
  -4 -12   7    6.56    4.41
  -4 -12  -7    9.16    4.18
   4  12  -7    8.04    4.23
  -4  12  -7    8.13    4.85
  -4  12   7   12.20    4.99
  -4 -12   7    7.87    4.34
   4 -12   8    9.95    4.43
  -4 -12   8    8.35    4.30
   4  12   8    5.97    3.57
  -4 -12   8    5.94    3.27
  -4 -12  -8    2.99    3.23
  -4  12  -8    9.60    5.29
   4  12  -8    6.08    4.14
  -4  12   8   10.23    4.20
   4 -12   9    7.13    4.01
   4  12  -9   19.61    5.82
  -4 -12   9   14.69    4.98
   4  12   9   14.59    5.54
  -4 -12   9   13.54    4.84
  -4  12  -9   11.94    5.42
  -4 -12  -9   16.01    5.17
  -4  12   9   15.38    5.46
   4 -12  10    9.37    4.23
  -4 -12  10    9.22    4.03
   4  12  10    8.57    4.10
  -4 -12  10   15.32    5.82
  -4  12 -10   11.75    5.58
  -4 -12 -10    6.69    4.25
   4  12 -10   15.58    4.89
  -4  12  10   10.82    4.26
   4 -12  11   15.55    5.10
  -4  12  11   19.68    6.03
  -4 -12  11   22.85    5.88
  -4 -12  11   21.42    6.59
   4  12  11   25.58    6.42
  -4  12 -11   22.44    6.55
  -4 -12 -11   24.31    6.33
   4  12 -11   24.73    6.14
   4 -12  12   -0.83    3.05
  -4  12  12    3.60    2.87
  -4 -12  12   -1.57    4.23
   4  12  12   -0.34    2.41
  -4  12 -12    2.09    3.65
  -4 -12 -12   -3.78    3.71
   4  12 -12    5.55    3.95
   4 -12  13    1.46    3.85
  -4  12  13    4.55    4.05
   4  12  13    5.46    4.59
  -4  12 -13    6.83    4.79
  -4 -12 -13    6.51    3.77
   4  12 -13    3.11    3.88
  -4  12  14   23.66    6.62
   4  12  14   19.55    5.75
  -4 -12 -14   18.46    5.66
   4  12 -14   20.45    5.52
   4 -12  14   20.23    6.30
  -4  12  15   -0.22    2.58
   4  12  15    4.25    3.60
   4  12 -15    0.61    2.99
  -4 -12 -15    3.75    3.52
   4 -12  15   -0.48    3.13
   4  12 -16    4.90    3.63
  -4 -13   0   22.27    6.42
  -4  13   0   23.93    6.60
   4  13   0   23.28    6.18
  -4 -13   1   25.33    6.87
  -4 -13  -1   28.71    7.19
   4  13   1   20.15    5.99
  -4  13  -1   22.58    6.32
  -4  13   1   19.24    5.98
   4  13  -1   15.99    5.14
  -4  13  -2    7.18    3.96
  -4 -13   2    5.46    4.42
  -4 -13  -2    5.94    4.67
  -4  13   2   -2.47    5.00
   4  13  -2    1.42    3.93
   4  13   2    5.75    4.33
  -4 -13   3  123.06   13.54
  -4 -13  -3  112.38   12.45
  -4  13  -3  108.84   12.91
   4  13  -3  102.45   11.76
  -4  13   3  107.48   12.69
   4  13   3  110.35   12.36
  -4 -13   4    0.87    4.60
  -4 -13  -4    2.12    3.03
  -4  13  -4    2.70    3.23
   4  13  -4   -1.05    3.79
  -4  13   4   -4.65    4.77
   4  13   4    7.27    4.60
  -4 -13   5    6.84    4.34
  -4 -13  -5   -0.71    3.57
  -4  13  -5    3.93    3.95
   4  13  -5    1.13    3.10
  -4  13   5    5.14    3.90
   4  13   5    4.27    3.29
   4  13   6    4.05    3.29
  -4 -13   6    8.64    4.91
  -4 -13   6    0.33    3.68
  -4 -13  -6   -0.16    2.96
  -4  13  -6    6.31    4.84
  -4  13   6    2.23    3.12
   4  13  -6    7.68    3.99
   4 -13   7   40.32    7.23
   4  13   7   36.86    7.94
  -4 -13   7   43.79    8.83
  -4 -13  -7   41.41    8.09
  -4  13  -7   56.51    9.70
   4  13  -7   37.76    7.56
  -4  13   7   44.13    8.60
  -4 -13   7   38.89    7.84
   4 -13   8   45.95    8.01
  -4 -13   8   44.40    8.27
   4  13   8   34.26    7.44
  -4 -13   8   30.55    7.75
  -4 -13  -8   35.21    7.23
   4  13  -8   37.10    7.91
  -4  13  -8   19.90    6.36
  -4  13   8   35.91    7.87
   4 -13   9    8.13    3.83
  -4 -13   9    8.91    4.27
   4  13   9    3.59    3.35
  -4 -13   9    8.70    4.98
  -4 -13  -9    7.32    4.64
  -4  13  -9    7.93    4.76
   4  13  -9    3.55    3.57
  -4  13   9    5.44    3.61
   4 -13  10    3.95    3.40
  -4 -13  10   -1.48    3.02
   4  13  10   -0.06    3.55
  -4 -13 -10   -1.93    3.40
   4  13 -10    2.10    3.45
  -4  13  10   -6.12    4.59
   4 -13  11   -3.36    4.11
  -4  13  11   -3.33    3.84
   4  13  11   -2.84    3.77
  -4 -13 -11   -1.73    2.99
   4  13 -11   -2.11    3.06
   4 -13  12   37.79    7.84
   4  13  12   34.37    7.99
  -4 -13 -12   35.84    7.65
   4  13 -12   36.35    7.75
   4 -13  13    4.95    3.81
  -4 -13 -13    8.63    4.15
   4  13 -13   14.80    5.65
   4  13 -14    3.00    3.21
  -4 -14   0   63.09   10.21
   4  14   0   63.24    9.96
  -4 -14   1   21.60    6.77
  -4 -14  -1   15.69    6.19
   4  14  -1   16.23    6.03
   4  14   1   10.60    4.86
  -4 -14   2   -4.00    2.98
  -4 -14  -2    2.09    3.56
   4  14  -2    2.62    3.28
   4  14   2   -0.80    3.31
  -4 -14   3    2.85    3.66
  -4 -14  -3    3.61    3.50
   4  14  -3   -6.40    4.65
   4  14   3   -0.16    3.25
  -4 -14  -4    5.69    4.20
   4  14   4   13.15    5.72
  -4 -14  -5    0.45    3.22
   4  14  -5   -5.54    4.17
   4  14   5   -3.95    4.15
   4  14   6   33.11    7.51
  -4 -14  -6   19.44    6.19
   4  14  -6   25.95    6.68
  -4 -14   6   27.34    7.25
   4  14   7    7.78    4.65
  -4 -14  -7   19.66    6.00
   4  14  -7   14.43    5.33
  -4 -14   7   15.28    5.50
  -4 -14   8   10.52    4.83
  -4 -14  -8    8.30    4.89
   4  14  -8    6.48    4.09
  -4 -14   9    2.04    2.99
  -4 -14  -9    3.25    3.50
   4  14  -9    6.99    4.34
  -4 -14 -10    0.04    3.38
   4  14 -10    6.43    3.57
   4 -14  11   -3.20    4.47
   4  14 -11    4.65    4.29
  -5   0   0    1.50    2.06
  -5   0   0   -4.18    3.66
  -5   0  -1    0.15    0.51
  -5   0  -1   -0.75    1.95
  -5   0   1    1.76    2.87
  -5   0  -2  997.95   13.74
  -5   0  -2  980.63   21.77
  -5   0   2  979.23   24.18
  -5   0  -3   12.32    5.11
  -5   0  -3    7.99    2.20
  -5   0  -3   15.67    4.31
  -5   0   3   11.58    4.19
  -5   0  -4 1581.11   21.33
  -5   0  -4 1655.65   29.54
   5   0  -4 1596.75   31.05
  -5   0   4 1569.40   30.97
  -5   0  -4 1624.95   31.28
  -5   0   5    7.31    3.85
  -5   0  -5    4.84    2.02
  -5   0  -5    0.07    3.59
   5   0  -5    2.00    3.15
  -5   0  -5    1.51    2.88
  -5   0  -6 1252.00   21.93
   5   0  -6 1149.23   10.56
  -5   0   6 1218.62   21.82
  -5   0  -6 1274.84   27.14
   5   0  -6 1293.13   28.65
  -5   0  -6 1324.32   29.32
  -5   0   6 1242.99   28.29
  -5   0   7   -0.86    2.52
  -5   0  -7    3.95    3.60
  -5   0   7   -0.19    1.59
   5   0  -7   -5.67    4.84
   5   0  -7   -0.65    0.80
  -5   0  -7    1.37    3.11
  -5   0  -8  359.43   16.07
  -5   0   8  339.89   11.72
   5   0  -8  341.63    8.40
   5   0  -8  335.70   15.23
  -5   0  -8  344.17   15.19
  -5   0   8  335.04   15.26
  -5   0   9   -2.98    3.50
  -5   0   9   -0.55    1.56
   5   0  -9   -6.64    4.95
  -5   0  -9    0.33    3.56
  -5   0  -9    2.42    3.66
   5   0  -9    0.71    0.99
  -5   0  10  138.52    7.70
   5   0 -10  145.32   10.65
  -5   0 -10  139.56   10.79
  -5   0 -10  140.11   10.60
   5   0 -10  138.62    6.58
  -5   0  10  133.53   10.11
  -5   0 -10  129.31    8.01
   5   0 -11   -0.17    1.23
  -5   0 -11   -0.86    3.67
  -5   0  11   -1.84    2.04
   5   0 -11    4.76    3.94
  -5   0 -11    1.38    1.96
  -5   0 -11    3.58    3.70
  -5   0  12  525.95   15.41
   5   0 -12  535.77   21.13
  -5   0 -12  529.94   21.53
  -5   0 -12  546.98   20.95
  -5   0 -12  513.56   15.55
  -5   0  13   -0.69    1.91
  -5   0 -13    4.30    4.20
  -5   0 -13   -0.09    1.97
  -5   0 -13    4.14    4.62
   5   0 -13    1.60    3.87
  -5   0  14  113.67    7.64
   5   0 -14  103.75   10.21
  -5   0 -14  107.82   10.52
  -5   0 -14  103.82    9.95
  -5   0 -14  106.51    6.96
  -5   0 -15   -2.22    1.83
  -5   0  15    2.07    2.09
  -5   0 -15   -0.74    3.89
   5   0 -15    8.91    5.87
  -5   0 -15   11.24    6.35
   5   0 -16  643.16   25.38
  -5   0 -16  634.77   25.70
  -5   0 -16  633.67   25.23
  -5   0 -16  632.07   16.52
  -5   0  16  622.28   18.53
  -5   0  17    0.61    1.62
   5   0 -17    3.89    4.01
  -5   0 -17   12.83    5.99
  -5   0 -17    3.37    4.61
  -5   0  18   25.18    4.17
  -5   0 -18   22.73    5.98
  -5   0 -18   33.52    6.78
   5   0 -18   38.76    7.39
  -5   0  19   -0.19    1.95
   5   0 -19    0.80    4.18
  -5   0 -19    3.53    4.69
  -5   0 -19    0.31    3.57
   5   0 -20  103.81   11.60
  -5   0 -20   96.92   11.19
  -5   0 -20  110.46   11.82
   5   0 -21    4.12    3.92
  -5   0 -21   -5.98    5.08
  -5   0 -21   -4.89    4.87
  -5   0 -22   18.22    6.10
   5   0 -22   19.15    6.03
  -5   0 -22   15.27    5.56
   5   0 -23    8.71    5.12
  -5   0 -23    3.34    4.69
  -5   0 -23    1.77    4.92
   5   0 -24  223.75   18.44
  -5   0 -24  226.68   18.51
  -5   0 -24  214.09   18.01
  -5   0 -25    8.78    6.34
   5   0 -25   -3.02    3.36
  -5   0 -25    3.63    4.43
  -5   0 -26   88.86   12.38
   5   0 -26   82.39   10.33
  -5   1   0    0.78    0.86
  -5   1   0    1.75    1.57
   5  -1   0    0.91    1.49
  -5  -1   0    5.11    3.31
  -5   1   1  152.52    4.40
  -5  -1  -1  157.18    9.15
  -5   1  -1  164.46    8.26
  -5  -1  -1  153.13    4.43
  -5   1   1  162.49   10.22
   5  -1  -1  162.66    7.75
  -5  -1  -1  173.14   10.26
   5  -1   1  160.28    8.03
  -5  -1   1  162.82    9.84
  -5  -1  -2    9.08    1.41
  -5   1  -2   12.13    2.92
  -5   1   2    8.81    1.02
  -5  -1  -2   -0.65    2.79
  -5  -1  -2    5.55    2.49
   5   1  -2   18.41    4.74
   5  -1  -2   12.81    2.17
  -5   1  -2    9.36    2.74
  -5   1   2    7.66    3.46
  -5  -1   2    8.29    2.91
  -5  -1  -3    5.48    2.10
  -5  -1  -3   10.28    1.66
  -5   1  -3    9.12    3.19
   5   1  -3   12.29    4.30
   5  -1  -3   17.91    5.35
   5  -1  -3   11.36    2.18
  -5   1  -3   11.07    2.79
  -5  -1  -3   11.97    3.54
  -5   1   3    7.72    0.93
  -5   1   3    6.51    2.71
  -5  -1   3    6.81    2.50
  -5  -1   4   16.05    4.08
  -5   1   4   17.85    1.51
  -5  -1  -4   17.13    2.31
  -5  -1  -4   16.81    3.22
  -5  -1  -4   18.00    4.25
  -5   1  -4   20.33    4.31
   5   1  -4   19.61    4.51
   5  -1  -4   27.27    5.43
   5  -1  -4   19.71    2.80
  -5  -1  -4   18.00    3.69
  -5   1  -4   15.16    3.05
  -5   1   4   16.97    3.72
  -5   1   5    4.27    3.19
  -5  -1   5    7.63    3.38
  -5  -1  -5    2.91    3.16
  -5   1  -5    0.37    2.73
  -5  -1  -5    5.15    1.54
  -5  -1   5    4.19    2.47
  -5   1   5    4.68    0.94
   5   1  -5    0.96    3.01
   5  -1  -5    2.95    3.56
   5  -1  -5    5.51    1.80
  -5  -1  -5    4.17    3.13
  -5   1  -5    7.06    3.88
   5  -1  -6  319.97    7.40
  -5  -1   6  324.60   12.21
  -5   1   6  316.52   10.08
   5  -1  -6  308.32   10.67
   5   1  -6  315.04   14.32
   5  -1  -6  319.14   14.63
  -5  -1  -6  320.06   14.69
  -5   1  -6  342.00   15.05
  -5  -1  -6  327.59   14.36
  -5   1  -6  334.27   13.71
  -5   1   6  309.86   14.50
  -5  -1   6  321.75   14.32
  -5  -1  -6  312.57   13.05
  -5  -1  -6  316.63   10.99
  -5   1   7   45.58    6.19
  -5  -1   7   37.35    5.25
  -5  -1   7   40.16    4.66
  -5   1   7   39.73    3.69
   5  -1  -7   42.45    3.11
  -5  -1  -7   41.79    6.24
   5   1  -7   40.30    2.41
   5   1  -7   36.18    4.86
   5  -1  -7   33.15    5.34
  -5   1  -7   46.16    6.41
  -5  -1  -7   33.45    5.09
  -5   1  -7   48.85    5.80
  -5  -1  -7   46.88    5.39
   5   1  -8   12.09    2.81
  -5   1   8   15.96    3.73
  -5  -1   8   16.08    3.39
  -5   1   8   16.72    2.37
  -5  -1   8   17.92    3.21
  -5  -1  -8   16.37    3.34
  -5  -1  -8   21.84    5.28
  -5   1  -8   18.85    4.76
   5  -1  -8   19.46    2.30
   5  -1  -8   13.22    3.36
   5   1  -8   18.50    1.96
  -5  -1  -8   14.74    3.66
  -5   1  -8   20.71    4.34
  -5   1   9   64.50    4.68
  -5  -1   9   62.14    5.74
   5  -1  -9   62.18    4.33
  -5   1  -9   66.99    7.67
   5   1  -9   74.16    7.34
   5  -1  -9   58.53    6.89
  -5  -1  -9   64.23    7.54
  -5   1  -9   77.14    7.44
   5   1  -9   67.04    4.07
  -5  -1  -9   77.81    6.80
  -5   1   9   71.54    7.59
  -5  -1   9   64.61    6.80
  -5  -1  -9   70.19    7.89
  -5   1  10  501.11   13.05
  -5  -1  10  489.84   15.74
   5  -1 -10  500.21   13.11
   5   1 -10  498.95   19.64
   5  -1 -10  470.57   19.03
  -5   1 -10  489.83   19.59
  -5  -1 -10  496.16   19.50
  -5   1 -10  513.93   19.00
   5   1 -10  503.09   12.16
  -5  -1 -10  504.01   16.39
  -5   1  10  501.78   19.78
  -5  -1  10  507.99   19.16
  -5  -1 -10  515.32   20.07
   5   1  10  463.69    8.53
  -5   1  11   37.99    3.74
   5   1 -11   43.91    6.89
  -5  -1  11   37.70    4.66
   5  -1 -11   40.09    6.79
   5  -1 -11   41.16    4.11
  -5   1 -11   40.56    6.61
  -5  -1 -11   39.03    6.53
  -5  -1 -11   38.25    6.19
  -5  -1 -11   49.00    5.49
  -5   1 -11   35.83    5.94
   5   1 -11   39.21    3.78
  -5   1  12  189.41    8.41
  -5  -1  12  194.58   10.39
   5   1 -12  208.47   13.25
   5  -1 -12  220.72   13.73
  -5  -1 -12  190.01   13.33
  -5   1 -12  204.41   13.74
  -5  -1 -12  190.98   12.92
  -5   1 -12  199.43   12.82
  -5  -1 -12  198.59   10.57
   5   1 -12  189.67    8.72
  -5   1  13  326.99   11.16
  -5  -1  13  330.40   13.72
   5   1 -13  338.29   17.21
   5  -1 -13  322.29   16.93
  -5  -1 -13  364.54   18.15
  -5   1 -13  363.09   18.32
  -5  -1 -13  344.72   17.45
  -5   1 -13  322.00   16.83
  -5  -1 -13  320.80   13.33
  -5   1  14  110.51    6.78
  -5  -1  14  117.66    8.46
   5   1 -14  117.24   10.93
   5  -1 -14  116.11   10.77
  -5  -1 -14  110.67   10.51
  -5   1 -14  117.70   10.95
  -5  -1 -14  122.03   11.01
  -5   1 -14  131.36   11.28
  -5  -1 -14  114.12    7.97
   5  -1 -15   19.72    5.89
  -5   1  15   12.52    2.73
  -5  -1  15   18.71    4.08
  -5  -1 -15   13.19    3.00
  -5   1 -15   10.88    3.73
   5   1 -15   27.09    6.37
  -5  -1 -15   23.20    6.09
  -5   1 -15   10.85    4.28
  -5  -1 -15    8.86    4.54
  -5  -1  16  150.11    9.94
   5   1 -16  165.75   13.08
   5  -1 -16  154.38   12.73
  -5  -1 -16  151.22   12.60
  -5   1 -16  131.76   11.85
  -5  -1 -16  158.70   13.03
  -5   1 -16  151.74   12.40
  -5  -1 -16  146.70    8.89
  -5   1  16  147.04    8.17
  -5   1  17   26.66    3.62
  -5  -1  17   31.99    5.08
  -5  -1 -17   35.42    4.52
  -5   1 -17   27.54    5.82
   5   1 -17   36.85    7.09
   5  -1 -17   34.26    6.94
  -5  -1 -17   29.66    6.49
  -5  -1 -17   37.25    7.45
  -5   1 -17   26.46    6.04
  -5  -1  18   22.00    4.26
  -5   1 -18   19.77    5.47
   5  -1 -18   26.55    6.28
  -5  -1 -18   26.34    6.45
  -5  -1 -18   21.24    5.60
  -5   1 -18   18.50    5.22
   5   1 -18   16.13    4.92
  -5  -1  19   12.12    3.40
  -5   1 -19   15.72    5.25
   5   1 -19   16.77    5.53
   5  -1 -19   20.14    5.49
  -5  -1 -19   19.31    6.05
  -5  -1 -19   18.49    5.71
  -5   1 -19   17.61    5.93
   5  -1 -20   84.24   10.55
  -5  -1 -20   74.13   10.11
   5   1 -20   68.52    9.56
  -5   1 -20   78.62   10.41
  -5   1 -20   90.07   10.95
  -5  -1 -20   80.11   10.34
  -5  -1  20   80.11    7.95
  -5  -1  21   43.02    6.06
  -5   1 -21   44.37    8.48
   5  -1 -21   51.05    8.64
   5   1 -21   43.19    8.39
  -5  -1 -21   50.87    8.75
  -5  -1 -21   44.73    8.04
  -5   1 -21   40.16    8.06
  -5   1 -22   -3.17    4.68
   5   1 -22   -2.01    3.52
   5  -1 -22    0.15    3.46
  -5  -1 -22    4.26    5.17
  -5  -1 -22   -0.76    3.42
  -5   1 -22   -0.16    3.73
   5   1 -23   59.83    9.65
   5  -1 -23   62.51   10.19
  -5   1 -23   61.53    9.87
  -5  -1 -23   58.86    9.68
  -5  -1 -23   76.51   11.16
  -5   1 -23   57.82    9.40
   5   1 -24   98.25   12.24
   5  -1 -24  103.81   12.57
  -5  -1 -24   98.15   12.40
  -5   1 -24  110.25   13.15
  -5  -1 -24  104.19   13.06
  -5   1 -24   90.32   12.13
   5  -1 -24   89.07   10.08
   5   1 -25    1.31    3.09
   5  -1 -25    7.70    5.21
  -5   1 -25    4.39    4.00
  -5  -1 -25    4.21    4.38
  -5  -1 -25    9.92    5.46
  -5   1 -25    3.53    5.67
  -5   1 -26   26.18    7.27
  -5  -1 -26   19.45    6.67
   5   1 -28    0.57    3.10
  -5  -2   0    0.64    0.57
  -5   2   0    0.14    1.05
  -5  -2   0   -4.36    3.22
  -5   2   0   -0.07    1.35
   5  -2   0   -1.15    1.46
  -5   2   0   -0.04    2.64
  -5  -2   0   -2.51    2.84
  -5   2  -1   85.24    6.86
  -5   2   1   92.80    4.62
  -5  -2  -1   92.57    3.96
   5  -2  -1   96.04    5.54
  -5   2  -1  105.95    8.55
  -5  -2  -1   99.67    7.93
  -5   2   1   93.55    7.97
  -5  -2   1   82.84    6.82
   5  -2   1  102.85    6.05
  -5   2  -1   96.69    6.10
  -5  -2  -1   92.36    7.70
  -5  -2   1   97.99    8.04
  -5   2   2   81.06    4.23
  -5  -2  -2   84.30    4.27
  -5   2  -2   79.19    6.77
   5   2  -2   84.36    7.45
  -5  -2  -2   86.57    7.43
  -5   2  -2   85.10    6.02
   5  -2  -2   82.80    5.00
  -5   2   2   71.04    6.97
  -5  -2   2   70.80    6.35
   5  -2   2   86.85    5.84
  -5  -2  -2   81.30    7.34
  -5  -2   2   85.35    7.59
   5   2  -3 1009.59   23.62
  -5   2   3  952.16   14.22
  -5  -2  -3  961.66   15.86
  -5   2  -3  987.49   23.48
  -5  -2  -3 1028.97   24.67
  -5   2  -3  993.60   20.62
   5  -2  -3  980.72   16.77
  -5   2   3 1007.03   25.32
  -5  -2   3  956.83   22.96
  -5  -2  -3  985.86   24.34
   5   2  -4  660.46   19.70
   5  -2  -4  690.43   21.22
  -5   2  -4  676.03   20.24
  -5  -2  -4  688.80   14.62
   5  -2  -4  668.61   13.73
  -5  -2  -4  699.94   20.64
  -5   2  -4  680.86   17.52
  -5   2   4  684.73   20.95
  -5  -2   4  661.10   19.53
  -5  -2  -4  698.81   20.43
  -5   2   4  643.44   11.96
   5  -2  -5  727.20   13.03
  -5  -2   5  743.18   19.55
  -5  -2  -5  766.30   22.52
  -5  -2  -5  786.12   22.90
   5   2  -5  769.23   21.32
   5  -2  -5  747.65   22.51
  -5   2  -5  759.99   21.54
   5  -2  -5  714.30   14.35
  -5   2  -5  755.02   19.18
  -5   2   5  741.58   13.29
  -5  -2  -5  740.88   21.07
  -5   2   5  749.89   22.48
  -5  -2   5  764.32   21.01
  -5  -2  -5  757.83   16.42
   5   2  -6  603.36    8.68
   5   2  -6  596.53    8.60
   5  -2  -6  629.23   12.79
  -5  -2   6  615.55   18.06
  -5   2   6  630.64   12.62
   5   2  -6  626.77   19.94
   5  -2  -6  672.89   21.32
  -5   2  -6  622.03   20.27
   5  -2  -6  608.89   13.37
  -5   2  -6  637.15   18.30
   5  -2   6  623.86   11.61
  -5  -2  -6  646.37   21.24
  -5  -2  -6  652.36   19.74
  -5   2   6  651.61   21.36
  -5  -2   6  630.27   19.59
  -5   2   6  617.23   12.88
  -5  -2  -6  668.99   21.51
   5  -2   7   97.72    4.01
   5   2  -7  103.71    4.23
  -5   2   7   94.65    4.95
  -5  -2   7  105.87    7.61
   5  -2  -7  107.87    5.66
  -5  -2  -7  120.93    8.71
   5  -2  -7   97.95    5.51
   5   2  -7   96.02    7.89
   5  -2  -7  106.93    9.01
  -5  -2  -7  109.75    9.23
  -5  -2  -7   98.97    8.88
  -5   2  -7  101.31    7.94
  -5   2   7  107.58    9.24
  -5  -2   7  104.88    8.26
  -5   2  -7  119.51    9.35
  -5   2   7  105.84    5.63
  -5   2   8    0.72    3.00
  -5  -2   8    0.39    2.60
   5  -2  -8   -2.29    4.17
  -5  -2  -8   10.16    3.59
   5   2  -8   -6.35    4.70
  -5   2   8    3.15    1.27
  -5  -2   8    3.27    2.32
  -5   2   8    2.34    1.27
   5   2  -8    5.09    1.32
  -5  -2  -8    3.71    3.91
   5  -2  -8    2.93    1.56
  -5  -2  -8    1.50    3.15
  -5   2  -8    9.14    3.41
  -5   2  -8    5.69    3.18
   5   2  -9  509.99   11.65
  -5   2   9  503.92   10.97
  -5   2   9  503.15   13.63
  -5  -2   9  509.45   16.85
   5  -2  -9  494.16   13.38
  -5  -2  -9  522.71   20.03
   5   2  -9  542.12   19.81
   5  -2  -9  502.67   19.40
  -5  -2  -9  535.60   20.10
  -5   2  -9  510.84   19.75
  -5   2  -9  519.40   18.34
  -5  -2  -9  527.11   17.78
  -5   2   9  502.62   19.53
  -5  -2   9  496.24   18.52
  -5   2  10  149.47    5.96
   5   2 -10  149.27    6.83
  -5  -2  10  149.15    9.62
   5   2  10  156.73    6.55
   5  -2 -10  141.59    7.57
   5   2 -10  144.70   10.84
   5  -2 -10  141.76   10.53
  -5  -2 -10  163.09   11.62
  -5   2 -10  153.59   11.35
  -5  -2 -10  146.30   11.07
  -5   2 -10  154.99   10.58
  -5  -2 -10  155.26    9.72
  -5   2  10  139.54   10.65
  -5   2  11   51.76    3.65
   5   2 -11   50.63    4.37
   5   2 -11   56.41    7.28
  -5  -2  11   53.20    5.92
  -5   2  11   42.21    5.91
   5  -2 -11   36.31    5.55
  -5   2 -11   52.73    7.30
  -5  -2 -11   57.13    6.44
  -5  -2 -11   50.78    6.87
  -5   2 -11   48.04    6.33
   5   2  11   50.48    3.62
  -5  -2 -11   50.81    7.23
  -5  -2  12  138.79    9.31
   5   2 -12  148.05   11.46
   5  -2 -12  144.88   11.64
  -5  -2 -12  134.66   11.14
  -5   2 -12  148.06   12.08
  -5  -2 -12  134.50    9.30
  -5  -2 -12  130.75   11.17
  -5   2 -12  137.79   10.90
  -5   2  12  133.25    5.96
  -5  -2  13  588.58   19.45
   5   2 -13  582.51   22.67
   5  -2 -13  581.49   22.80
  -5  -2 -13  578.45   22.50
  -5   2 -13  553.48   22.67
  -5  -2 -13  563.00   22.66
  -5  -2 -13  549.76   18.64
  -5   2 -13  575.24   21.96
  -5   2  13  570.43   12.51
   5  -2 -14   47.75    7.53
  -5  -2 -14   33.10    5.09
  -5  -2 -14   40.07    7.40
  -5   2 -14   28.65    5.73
  -5  -2  14   24.23    4.38
   5   2 -14   42.69    7.40
  -5  -2 -14   39.53    7.17
  -5   2 -14   25.35    5.26
  -5   2  14   33.21    3.10
  -5  -2  15  153.92   10.49
   5   2 -15  154.57   12.35
   5  -2 -15  175.44   13.36
  -5  -2 -15  157.92   12.81
  -5   2 -15  146.26   12.52
  -5  -2 -15  175.71   13.40
  -5  -2 -15  153.15    9.87
  -5   2 -15  150.33   12.02
  -5   2  15  167.20    7.20
  -5   2 -16   80.85    9.74
  -5  -2  16   83.72    8.17
   5   2 -16   98.79   10.71
   5  -2 -16   95.04   10.62
  -5  -2 -16  100.04   10.97
  -5  -2 -16  100.72   11.16
  -5  -2 -16   85.00    7.55
  -5   2 -16   89.81    9.96
  -5  -2  17  153.28   11.30
   5   2 -17  161.83   13.37
   5  -2 -17  172.39   13.98
  -5  -2 -17  175.08   13.90
  -5   2 -17  161.33   13.83
  -5  -2 -17  149.92   13.10
  -5  -2 -17  160.42   10.17
  -5   2 -17  156.25   13.16
  -5  -2  18   96.57    8.94
   5   2 -18   83.02   10.05
   5  -2 -18  108.63   11.41
  -5  -2 -18  102.40   10.86
  -5  -2 -18  110.96   11.85
  -5  -2 -18   98.61    8.09
  -5   2 -18  100.08   10.84
   5   2 -19   41.95    7.82
  -5  -2 -19   36.60    7.27
  -5  -2  19   35.47    5.60
  -5  -2 -19   42.22    7.50
  -5   2 -19   38.06    7.42
   5  -2 -19   39.54    7.63
   5   2 -20  133.29   13.10
   5  -2 -20  139.21   13.47
  -5  -2 -20  139.34   13.22
  -5  -2 -20  142.70   13.70
  -5   2 -20  133.09   12.88
  -5  -2  20  133.72   10.81
  -5  -2  21   20.21    4.64
   5   2 -21   23.62    6.66
   5  -2 -21   24.99    6.07
  -5  -2 -21   30.22    7.17
  -5  -2 -21   28.22    7.54
  -5   2 -21   20.83    6.37
   5  -2 -21   23.93    4.90
  -5  -2  22   19.80    5.21
   5  -2 -22   19.63    6.00
   5   2 -22   25.41    6.95
  -5  -2 -22   17.56    5.78
  -5   2 -22   19.61    5.37
  -5  -2 -22   21.19    6.07
  -5  -2  23   22.01    4.94
   5   2 -23   30.26    7.42
   5  -2 -23   23.70    6.51
  -5  -2 -23   19.94    5.98
  -5   2 -23   21.90    6.05
  -5  -2 -23   21.42    6.38
   5   2 -24   10.57    5.36
   5  -2 -24   22.54    6.00
  -5  -2 -24   15.00    6.07
  -5   2 -24   15.87    6.20
  -5  -2 -24   13.72    5.65
   5   2 -25    2.65    3.94
   5  -2 -25    1.57    3.27
  -5  -2 -25    6.50    5.91
  -5   2 -25    2.42    4.40
  -5  -2 -25    2.14    3.64
  -5  -2 -26    4.29    4.10
  -5  -3   0    1.19    1.00
   5   3   0    0.00    0.75
  -5  -3   0   -1.07    2.46
  -5   3   0   -0.59    1.35
  -5   3   0   -1.22    1.98
  -5   3   0   -0.25    1.12
   5  -3   0    0.81    0.91
  -5   3   0    2.56    2.75
  -5  -3   0    3.08    2.65
  -5   3   0   -0.26    1.09
   5   3  -1    8.73    1.39
  -5  -3  -1    8.90    3.58
  -5   3  -1   10.41    2.58
   5   3   1    7.84    1.53
  -5  -3   1    2.80    2.51
  -5  -3  -1    7.48    1.56
  -5   3   1    7.56    2.09
  -5   3  -1   11.31    4.52
  -5   3   1    8.93    1.93
  -5   3  -1    8.14    1.97
  -5   3  -1    9.91    3.08
   5  -3  -1    9.42    1.82
  -5  -3  -1   11.52    3.64
   5  -3   1    8.44    1.89
  -5   3   1    8.34    3.61
  -5  -3   1    3.80    2.05
   5   3   2  225.86    7.92
  -5  -3  -2  217.25    7.79
  -5   3   2  221.81    8.52
   5   3  -2  229.05   11.31
  -5   3  -2  224.47   11.00
  -5   3  -2  226.94    9.06
   5   3  -2  217.00    5.97
   5  -3  -2  223.72    7.24
  -5   3   2  234.36   12.27
  -5  -3   2  235.93   11.08
  -5  -3  -2  227.26   12.22
   5  -3   2  222.90    8.91
  -5  -3   2  230.03   12.36
  -5  -3   3   -1.96    2.89
  -5  -3  -3    5.02    2.92
  -5   3  -3    2.18    2.45
   5   3   3    2.33    1.42
  -5  -3   3   -2.96    3.12
  -5  -3  -3    0.94    0.94
  -5  -3  -3    0.07    3.39
   5   3  -3    2.42    3.10
  -5   3   3    0.03    1.58
  -5   3  -3    3.62    1.85
   5  -3  -3    0.07    0.86
   5   3  -3    1.11    0.62
   5  -3   3    0.61    1.13
  -5   3   3   -0.93    3.24
  -5  -3   4   -0.61    2.04
  -5   3  -4    2.29    2.45
  -5  -3  -4   -0.11    2.50
  -5  -3   4   -1.18    2.64
  -5  -3   4    0.95    2.30
   5  -3   4   -3.85    2.16
   5   3   4    0.20    1.48
  -5   3  -4    0.17    1.56
  -5  -3  -4   -2.41    3.01
   5   3  -4   -1.91    2.81
   5   3  -4   -1.39    1.11
   5  -3  -4    6.77    4.84
  -5  -3  -4   -0.33    1.15
   5  -3  -4    0.38    0.72
  -5   3   4   -0.76    1.27
  -5   3   4   -4.75    3.61
   5  -3  -5  232.44    8.73
   5   3   5  233.48    9.63
   5   3  -5  227.44    6.38
  -5  -3   5  226.31   11.81
  -5   3  -5  220.85   11.75
  -5  -3  -5  220.75    9.39
   5   3  -5  230.58   11.79
   5  -3  -5  226.20   12.83
  -5  -3  -5  238.96   12.90
   5  -3  -5  224.02    6.68
  -5   3  -5  215.78   10.17
  -5  -3  -5  217.11   12.22
  -5   3   5  228.80   12.99
  -5  -3   5  227.35   11.34
   5  -3   5  227.53    8.32
  -5   3   5  225.71    8.81
  -5   3   6   41.45    6.22
   5  -3   6   39.22    3.37
  -5  -3   6   45.25    5.54
  -5  -3  -6   49.29    6.03
   5  -3  -6   38.64    3.82
   5   3  -6   36.58    2.89
  -5   3   6   38.65    2.75
  -5   3  -6   43.40    5.12
  -5  -3   6   43.52    5.74
  -5   3  -6   41.18    5.74
   5   3  -6   33.71    5.01
   5  -3  -6   38.41    2.90
  -5   3   6   38.16    3.81
   5  -3  -6   54.89    7.29
  -5  -3  -6   47.57    6.70
  -5  -3  -7  198.41   12.60
   5   3  -7  194.76    6.83
  -5   3   7  195.85    5.51
   5  -3  -7  199.04    8.61
  -5  -3   7  199.13   11.10
   5   3  -7  187.82   11.08
   5  -3  -7  209.42   12.46
  -5  -3  -7  202.08   12.37
  -5   3  -7  204.84   11.94
   5  -3  -7  193.26    6.52
  -5  -3  -7  204.29   11.67
  -5   3  -7  201.99   10.79
  -5   3   7  198.95    8.70
  -5   3   7  202.16   12.31
  -5  -3   7  200.78   11.07
  -5  -3  -8    9.01    3.52
  -5  -3  -8    9.02    3.52
  -5   3   8    3.55    2.77
  -5   3  -8   10.76    3.79
  -5  -3   8    6.29    2.56
  -5   3   8    7.30    1.06
  -5   3   8    8.10    2.01
  -5  -3   8    8.30    2.55
  -5  -3  -8    9.28    4.01
   5  -3  -8   10.79    2.45
   5   3  -8    0.34    4.24
   5  -3  -8    8.99    3.82
   5  -3  -8    8.39    1.64
  -5   3  -8    8.24    3.11
  -5  -3  -9   33.20    5.09
  -5   3  -9   29.53    5.33
  -5   3   9   29.91    1.89
  -5   3   9   29.70    4.87
  -5  -3   9   27.93    4.49
  -5   3   9   29.22    3.82
  -5  -3  -9   32.66    5.46
   5  -3  -9   25.95    5.02
  -5  -3  -9   28.96    5.55
   5   3  -9   47.22    6.49
  -5   3  -9   26.20    4.47
  -5  -3 -10   13.16    3.36
   5   3  10   16.73    2.90
   5  -3  10   13.29    2.63
  -5   3  10    1.98    3.04
  -5  -3  10   17.91    4.18
  -5   3 -10   13.60    3.94
  -5   3  10   13.51    2.68
  -5  -3 -10   12.21    4.20
   5   3 -10   23.98    5.30
   5  -3 -10    3.89    3.78
  -5  -3 -10   11.37    3.87
  -5   3 -10    8.33    2.46
  -5   3  10   10.87    1.08
  -5   3  11    2.81    0.58
  -5   3  11   -3.05    4.06
  -5  -3  11    5.91    3.27
   5   3 -11    9.31    4.19
  -5   3  11    3.27    1.88
   5   3  11    5.34    1.89
  -5   3 -11   -1.83    4.56
   5  -3 -11   -2.70    4.68
  -5  -3 -11   -2.64    4.24
  -5  -3 -11    3.17    3.49
  -5   3 -11   -1.10    3.42
  -5  -3 -11    1.57    2.55
  -5   3 -12   -6.48    5.46
  -5  -3  12    1.04    2.31
  -5  -3 -12   -1.47    3.64
  -5   3  12    4.02    2.06
   5  -3 -12   -5.53    5.11
  -5  -3 -12    1.49    3.77
   5   3  12    1.59    1.24
  -5   3 -12   -3.64    4.43
   5   3 -12    6.59    3.85
  -5   3  12    2.61    0.60
  -5  -3 -12    3.85    3.00
  -5  -3  13  164.86   11.30
  -5   3  13  155.99    9.92
   5   3 -13  166.08   12.44
   5  -3 -13  166.09   12.36
  -5  -3 -13  150.83   11.92
  -5   3 -13  158.28   11.93
  -5  -3 -13  155.02   10.75
  -5  -3 -13  165.07   12.70
  -5   3 -13  148.18   11.04
   5  -3 -14    2.27    3.95
  -5  -3  14   -4.54    3.45
  -5  -3 -14    4.62    4.11
   5   3 -14    0.70    3.09
  -5  -3 -14   -4.17    4.32
  -5   3 -14   -4.11    4.54
  -5  -3 -14    1.32    2.74
  -5  -3  15  137.79   10.81
   5   3 -15  149.26   12.35
   5  -3 -15  147.75   12.36
  -5  -3 -15  147.43   12.07
  -5  -3 -15  140.40   10.04
  -5  -3 -15  136.59   12.24
  -5   3 -15  128.19   10.93
  -5  -3  16   23.85    4.76
  -5  -3 -16   27.51    6.29
  -5  -3 -16   29.55    6.23
   5  -3 -16   30.95    6.51
  -5  -3 -16   23.77    4.52
  -5   3 -16   22.62    5.35
   5   3 -16   23.12    5.49
  -5  -3  17    4.88    3.34
   5   3 -17    0.58    3.06
  -5  -3 -17    9.14    4.86
   5  -3 -17    6.89    4.31
  -5   3 -17   -2.23    4.17
   5  -3 -17    2.80    1.92
  -5  -3 -17    4.05    2.86
  -5  -3 -17    7.40    4.38
  -5  -3  18    2.36    3.14
   5  -3 -18    5.45    4.22
   5   3 -18   -0.63    3.34
  -5  -3 -18    5.78    4.51
  -5  -3 -18    5.12    4.66
  -5   3 -18    0.55    3.55
   5  -3 -18    1.01    1.91
  -5  -3 -18    2.79    3.16
  -5  -3  19   21.74    5.01
  -5   3 -19   15.69    5.16
   5   3 -19   14.93    4.81
  -5  -3 -19   20.06    5.53
   5  -3 -19   24.31    6.10
  -5  -3 -19   22.90    6.32
   5   3 -20   10.95    4.93
  -5  -3 -20   15.69    5.39
  -5  -3  20   13.32    4.02
   5  -3 -20   21.60    6.57
  -5  -3 -20   17.63    5.96
  -5   3 -20    1.56    4.10
  -5  -3  21   16.57    4.91
  -5  -3 -21   13.39    5.25
  -5  -3 -21   12.32    4.67
  -5   3 -21   12.07    4.71
   5  -3 -21    9.96    4.69
   5   3 -21    6.14    4.40
  -5  -3 -22   10.16    5.34
  -5  -3  22    3.60    3.00
   5   3 -22    4.99    3.57
   5  -3 -22   11.35    5.34
  -5  -3 -22    8.37    5.67
  -5   3 -22   -0.33    3.74
  -5  -3  23   22.73    5.62
   5  -3 -23   16.76    5.46
  -5  -3 -23   20.20    6.93
  -5   3 -23   13.20    5.63
  -5  -3 -23   21.20    6.36
   5   3 -23   15.05    5.33
   5  -3 -24   77.24   11.01
   5   3 -24   67.82   10.78
  -5  -3 -24   71.43   10.45
  -5  -3 -24   88.81   12.12
  -5   3 -24   59.20   10.10
  -5  -3  24   65.25    8.92
   5  -3 -25    7.68    4.71
  -5  -3 -25    6.52    5.00
  -5  -3 -25   15.76    6.50
  -5   3 -25    5.36    4.61
   5   3 -25   16.02    5.56
  -5  -3 -26    3.73    3.61
  -5   4   0    1.28    1.37
   5   4   0   -0.67    1.25
  -5  -4   0    2.68    1.58
  -5  -4   0    0.85    2.62
  -5   4   0   -3.39    2.42
  -5   4   0   -1.74    2.16
  -5   4   0   -0.38    1.00
  -5   4   0    0.83    3.16
  -5  -4   0    0.97    1.95
  -5   4  -1  307.12   11.81
  -5  -4  -1  293.33    9.69
  -5   4   1  291.51   11.12
   5   4   1  304.65    9.91
  -5   4  -1  291.31   12.13
  -5   4   1  283.42    7.74
  -5   4  -1  302.57    9.50
  -5   4  -1  301.11   14.36
  -5  -4  -1  298.85   14.69
  -5  -4  -1  287.53   12.33
   5  -4   1  300.95   12.21
  -5   4   1  314.14   14.40
   5   4  -1  314.49    9.44
  -5  -4   1  308.35   12.38
  -5  -4   1  313.40   15.15
  -5   4   1  293.92   10.01
  -5   4   2    6.42    1.57
  -5  -4  -2   12.72    4.47
   5   4   2    3.23    1.61
  -5   4  -2    6.24    2.86
  -5  -4   2    8.24    3.31
  -5  -4  -2    6.34    1.88
  -5   4  -2    7.61    2.79
  -5   4   2    3.35    1.71
   5  -4   2    3.35    1.82
   5   4  -2   14.24    4.40
  -5  -4  -2    9.95    3.49
  -5   4  -2    7.25    2.03
   5   4  -2    7.78    1.73
  -5   4   2    2.00    2.84
  -5  -4   2   -0.01    2.71
  -5  -4   3    2.90    1.94
  -5   4   3    1.90    0.94
  -5  -4  -3    3.03    2.65
   5   4   3   -0.16    1.31
  -5  -4   3    5.30    2.97
  -5  -4  -3    4.66    1.77
  -5   4  -3    1.24    2.42
   5  -4  -3    1.75    1.33
  -5   4   3    0.50    1.47
  -5   4  -3    2.29    1.53
   5   4  -3    5.62    3.29
   5   4  -3   -0.17    1.53
   5  -4  -3    2.35    0.63
  -5   4   3   -1.34    3.56
   5  -4   3    1.42    1.68
   5  -4   4   73.85    5.57
  -5  -4   4   73.90    7.44
   5   4  -4   71.51    4.41
  -5   4   4   66.96    5.44
   5   4  -4   71.87    6.95
  -5   4  -4   75.63    6.84
   5  -4  -4   71.70    5.45
  -5  -4  -4   75.72    7.78
  -5   4  -4   74.01    5.78
  -5  -4  -4   73.15    7.61
  -5   4   4   66.11    7.14
  -5  -4   4   71.07    6.39
   5  -4  -4   60.27    2.37
  -5  -4   4   71.22    7.52
  -5   4   4   72.60    3.91
   5   4   4   73.67    5.64
  -5  -4  -5   33.91    6.18
   5   4   5   38.91    4.53
  -5  -4   5   32.67    4.61
  -5  -4   5   31.97    5.75
   5  -4   5   37.64    4.04
   5   4  -5   33.65    3.37
  -5  -4   5   37.21    5.74
   5  -4  -5   32.84    3.79
  -5  -4  -5   38.79    7.68
   5   4  -5   31.87    5.02
  -5   4  -5   35.22    4.38
  -5   4  -5   40.54    5.61
  -5   4   5   42.50    6.55
  -5   4   5   30.88    3.88
   5  -4  -5   52.86    7.56
  -5   4   5   33.07    2.36
   5  -4  -6  530.74   19.72
   5   4   6  512.15   15.98
   5   4  -6  494.86   12.18
  -5  -4   6  525.71   18.87
  -5   4   6  473.15    7.02
   5   4  -6  515.84   17.74
  -5  -4  -6  512.59   20.26
   5  -4  -6  511.57   14.13
  -5   4  -6  506.13   18.52
  -5   4   6  502.52   15.06
  -5  -4  -6  493.85   18.86
  -5   4  -6  515.13   16.13
  -5   4   6  509.71   19.59
  -5  -4   6  498.72   17.14
  -5  -4   6  544.50   20.17
  -5   4   6  469.43    7.14
   5   4   7  370.85   14.16
   5   4  -7  353.14   10.78
  -5  -4   7  362.28   16.12
  -5  -4   7  368.44   15.01
   5   4  -7  347.87   15.03
   5  -4  -7  395.61   17.04
   5  -4  -7  372.78   12.18
  -5   4  -7  395.17   16.42
  -5  -4  -7  367.40   17.30
  -5  -4  -7  373.36   16.36
  -5   4   7  352.13   12.87
  -5   4  -7  382.32   14.54
  -5   4   7  365.02   16.70
  -5  -4   7  397.43   17.26
   5   4  -8   98.48    6.13
   5   4   8   85.63    7.44
  -5  -4   8   89.97    8.19
  -5  -4  -8  102.28    9.85
   5  -4  -8   79.55    3.01
   5   4  -8   79.81    7.79
   5  -4  -8   92.14    8.84
   5  -4  -8   87.31    5.92
  -5   4  -8   92.85    8.45
  -5  -4  -8   87.62    8.34
  -5   4   8   85.52    6.57
  -5   4  -8   89.78    7.55
  -5   4   8   89.35    8.38
  -5   4  -9   69.97    7.56
  -5  -4   9   67.39    7.24
   5  -4  -9   63.68    3.16
   5   4   9   66.21    6.77
   5   4  -9   81.91    8.08
   5  -4  -9   67.27    5.26
   5  -4  -9   64.53    7.38
  -5  -4  -9   75.36    8.69
  -5   4  -9   69.87    6.77
  -5   4   9   67.91    6.10
   5  -4  -9   66.42    3.19
  -5   4   9   71.57    7.67
  -5  -4  -9   73.46    8.05
  -5   4  10    2.35    2.63
   5  -4  10    2.03    1.30
  -5  -4  10   -1.04    2.51
  -5   4  10    3.52    1.93
  -5  -4 -10    2.22    3.25
  -5   4 -10  -10.02    5.20
   5  -4 -10   -6.57    4.80
  -5  -4 -10   -1.35    3.64
   5   4 -10    2.27    2.98
  -5   4 -10   -4.04    3.62
   5  -4 -10    0.75    0.71
   5  -4  11    6.08    1.84
   5   4 -11    7.08    4.05
  -5  -4  11    2.81    2.76
  -5   4  11    7.73    2.80
  -5  -4 -11    2.66    3.35
  -5  -4 -11    5.06    3.64
  -5   4 -11    0.81    4.30
   5  -4 -11    2.66    4.09
  -5   4 -11   -0.72    3.43
   5  -4 -11    6.76    1.41
  -5   4  12  156.25   10.01
  -5  -4  12  148.55   11.20
   5   4 -12  152.83   11.38
   5  -4 -12  135.94   10.99
  -5  -4 -12  155.75   12.41
  -5   4 -12  149.31   11.14
   5  -4 -12  153.69    6.37
  -5  -4 -12  152.45   11.69
  -5  -4  13   19.55    4.59
  -5  -4 -13   19.84    5.40
  -5   4  13   18.50    3.73
   5   4 -13   20.57    5.00
   5  -4 -13   12.06    4.27
  -5  -4 -13   13.78    4.93
  -5   4 -13   17.34    3.82
   5  -4 -13   17.70    2.49
  -5   4  14   41.19    6.21
  -5  -4  14   34.36    5.82
  -5  -4 -14   34.84    6.36
   5   4 -14   35.72    5.96
   5  -4 -14   30.62    5.94
  -5  -4 -14   39.45    6.76
   5  -4 -14   40.65    3.99
  -5   4 -14   29.62    5.55
  -5  -4  15    7.78    3.65
  -5   4  15    8.57    3.32
   5   4 -15    7.48    4.36
  -5  -4 -15    6.99    4.79
   5  -4 -15   12.03    4.83
  -5  -4 -15    6.25    3.77
  -5   4 -15    5.38    4.19
  -5  -4  16  188.32   13.16
  -5  -4 -16  200.19   14.37
   5   4 -16  195.09   14.30
   5  -4 -16  193.39   14.60
  -5  -4 -16  186.07   14.65
  -5   4 -16  192.12   14.08
  -5  -4  17  101.03    9.92
   5   4 -17   98.44   10.66
   5  -4 -17  106.69   11.40
  -5  -4 -17   94.08   10.33
  -5  -4 -17  101.22   11.19
  -5   4 -17  105.24   10.89
  -5  -4  18    0.01    2.90
   5   4 -18    4.33    3.85
   5  -4 -18    6.18    4.54
  -5  -4 -18   -3.30    4.95
  -5   4 -18    0.27    2.93
  -5  -4 -18   -1.65    3.27
  -5  -4  19   43.21    6.89
   5   4 -19   34.33    6.76
  -5  -4 -19   40.17    7.14
   5  -4 -19   45.73    8.15
  -5  -4 -19   40.84    7.33
  -5   4 -19   42.00    7.73
  -5  -4  20   -0.04    2.55
   5   4 -20    2.21    3.31
   5  -4 -20    7.01    4.66
  -5  -4 -20    8.44    4.69
  -5  -4 -20   -2.37    4.03
  -5   4 -20   -1.93    4.54
  -5  -4  21    9.77    4.21
   5   4 -21    9.31    4.02
   5  -4 -21   10.78    4.94
  -5  -4 -21    8.39    4.78
  -5  -4 -21    1.79    3.15
  -5   4 -21    3.73    3.83
   5  -4 -22   10.83    5.94
  -5  -4  22    5.79    4.43
  -5  -4 -22    6.94    5.31
  -5  -4 -22    5.77    5.60
  -5   4 -22    2.39    3.05
   5   4 -22   -1.74    3.01
   5   4 -23  236.88   18.54
   5  -4 -23  259.34   19.24
  -5  -4 -23  237.69   17.94
  -5  -4 -23  284.27   20.44
  -5   4 -23  263.33   19.82
  -5  -4  23  251.76   17.22
  -5  -4  24    1.26    2.85
   5   4 -24    8.48    5.63
  -5  -4 -24    5.56    4.49
   5  -4 -24    7.82    4.62
  -5  -4 -24   13.06    6.69
  -5   4 -24    6.08    5.02
  -5  -4  25    1.01    3.39
  -5  -4 -25   11.89    5.20
   5  -4 -25    3.12    4.14
  -5  -4 -26    8.09    4.83
  -5  -4 -27    7.09    5.17
  -5  -5   0    3.64    3.63
  -5   5   0   -0.74    1.79
  -5   5   0    2.08    2.17
  -5   5   0    0.12    0.88
   5  -5   0   -0.39    2.65
  -5   5   0   -1.04    3.16
  -5  -5   0   -4.43    3.25
   5   5   0   -1.80    2.10
  -5   5  -1  371.62   16.13
  -5   5  -1  367.51   14.22
  -5   5   1  363.21   14.08
   5   5  -1  371.85   11.88
  -5   5  -1  348.87   13.19
  -5   5   1  354.36    7.29
   5   5   1  370.36   12.45
  -5   5  -1  355.39    9.74
  -5  -5  -1  357.88   16.84
  -5  -5   1  378.23   17.04
  -5  -5  -1  351.66   13.14
  -5  -5   1  345.39   12.87
   5  -5  -1  358.09   15.05
   5  -5   1  356.03   14.25
  -5   5   1  377.22   16.12
  -5   5   1  373.13   11.28
  -5   5   2  163.02    7.01
   5  -5   2  171.29    9.52
  -5   5  -2  171.07   10.06
  -5   5   2  160.76    9.30
  -5  -5   2  183.75   11.79
  -5   5  -2  156.85    9.19
   5   5  -2  170.11    7.98
  -5  -5  -2  182.23   12.16
  -5   5  -2  169.39    7.47
   5   5   2  175.95    8.83
  -5   5  -2  186.15   11.83
  -5  -5  -2  168.94    9.48
  -5  -5   2  178.68   11.95
  -5   5   2  158.61   10.48
   5  -5  -2  169.46   10.54
  -5  -5   2  167.76    9.34
  -5  -5   3    7.87    2.68
   5  -5   3   12.84    3.93
  -5   5   3    5.09    1.37
   5   5   3    3.29    1.50
  -5  -5   3    2.68    2.74
  -5   5  -3    9.50    3.24
  -5  -5   3    4.38    3.47
  -5   5   3    1.91    2.39
   5   5  -3    1.17    1.74
   5   5  -3    8.39    3.31
   5  -5  -3   -0.04    3.74
  -5   5  -3    5.53    1.96
  -5   5   3   -8.21    4.92
  -5  -5  -3    7.49    3.71
  -5   5  -3    5.83    2.55
  -5   5   4   27.33    5.18
  -5   5   4   24.87    2.25
  -5  -5   4   23.30    3.73
   5  -5   4   31.77    4.23
   5   5   4   23.17    3.51
  -5  -5   4   27.88    5.04
  -5  -5   4   31.07    5.40
  -5   5  -4   23.68    4.22
   5   5  -4   22.71    3.10
   5   5  -4   32.43    4.83
  -5   5   4   17.18    2.89
  -5   5  -4   26.03    3.55
  -5  -5  -4   34.01    6.12
  -5   5   5   68.10    2.93
  -5  -5   5   72.14    7.97
   5   5  -5   71.88    5.39
  -5   5   5   70.21    6.23
   5   5  -5   66.16    6.46
  -5   5  -5   75.88    7.00
   5  -5  -5   67.00    4.96
  -5  -5  -5   80.44    8.33
  -5  -5  -5   71.86    8.00
  -5   5  -5   68.29    5.82
  -5   5   5   72.26    7.74
  -5  -5   5   80.69    8.22
  -5  -5   5   68.07    6.17
   5   5   5   70.63    6.20
  -5  -5  -6  199.72   13.15
  -5  -5   6  173.23   11.69
   5   5  -6  187.67    8.72
   5  -5  -6  198.53   12.69
   5   5  -6  189.64   10.74
  -5   5   6  183.60   10.10
   5  -5  -6  183.67    7.95
  -5   5  -6  197.11   11.54
  -5   5  -6  197.27   10.14
  -5   5   6  177.72   11.81
  -5  -5   6  182.64   10.21
  -5  -5   6  185.21   12.21
   5   5   6  192.33   10.51
   5   5   7  154.86    9.91
   5  -5  -7  162.98   11.81
  -5  -5   7  151.53   11.02
   5   5  -7  145.55    7.93
   5   5  -7  141.67    9.53
  -5   5  -7  154.09   10.71
  -5   5   7  155.74    9.42
  -5   5  -7  152.53    9.32
  -5   5   7  151.56   10.99
   5  -5  -7  147.02    7.18
  -5  -5   7  147.19   10.97
  -5  -5  -7  168.53   12.33
   5   5   8  113.22    8.80
  -5  -5   8  110.39    9.58
   5   5  -8  107.96    6.99
   5   5  -8   98.64    8.09
   5  -5  -8  105.80    9.72
  -5   5  -8  100.90    8.92
  -5  -5  -8  113.64   10.52
  -5   5   8  105.76    7.97
  -5   5  -8  101.60    8.18
  -5   5   8  102.91    9.24
  -5  -5   8  106.28    9.48
  -5   5  -9    4.50    3.43
  -5   5   9    3.02    2.80
  -5   5   9    2.75    1.94
   5   5  -9    9.56    2.88
  -5  -5   9    7.53    3.84
   5   5   9    9.24    3.30
   5   5  -9   11.96    4.08
   5  -5  -9   11.89    4.87
  -5  -5  -9    9.12    4.78
  -5   5  -9   11.63    3.64
  -5  -5   9    1.58    2.84
  -5   5  10    2.51    3.33
  -5   5  10    9.23    2.87
  -5  -5  10    9.22    3.94
   5   5  10   10.92    3.06
   5   5 -10   15.09    4.08
   5  -5 -10    7.89    4.22
  -5  -5 -10   15.04    5.00
  -5   5 -10    5.49    3.03
   5   5  11   52.70    6.79
  -5  -5  11   50.87    6.90
   5   5 -11   63.07    7.48
  -5  -5 -11   49.57    7.13
   5  -5 -11   49.81    6.88
  -5  -5 -11   66.52    8.53
  -5   5  11   58.20    6.46
  -5   5 -11   53.85    6.76
  -5  -5  12  206.32   13.52
   5   5  12  210.33   13.50
  -5  -5 -12  226.76   15.29
   5   5 -12  220.74   13.54
   5  -5 -12  219.73   14.18
  -5  -5 -12  232.93   14.54
  -5   5 -12  206.25   12.96
  -5   5  12  219.45   12.56
   5   5 -13    1.36    3.08
  -5  -5 -13    7.93    3.85
  -5  -5  13    2.05    2.66
  -5   5  13    3.85    2.71
   5  -5 -13   -0.35    3.85
  -5  -5 -13   -0.44    3.97
  -5   5 -13    5.03    2.98
  -5  -5  14    5.05    3.13
  -5  -5 -14    2.95    3.10
  -5   5  14    6.56    2.98
   5  -5 -14    3.70    3.20
  -5  -5 -14   -1.64    4.39
  -5   5 -14    2.15    3.06
   5   5 -14    1.61    2.69
  -5  -5 -15    7.52    3.97
  -5  -5  15   10.41    3.74
  -5   5  15    8.60    2.91
   5  -5 -15    3.68    3.89
   5   5 -15    9.18    3.87
  -5  -5 -15   15.89    5.62
  -5   5 -15   18.54    5.02
  -5  -5  16   21.28    5.23
  -5   5  16   16.84    4.04
   5   5 -16   22.09    5.55
   5  -5 -16   17.24    4.67
  -5  -5 -16   27.53    6.70
  -5   5 -16   20.39    5.55
  -5  -5 -16   26.11    6.18
  -5  -5 -17    3.95    3.69
  -5  -5  17   -5.60    3.74
   5   5 -17    0.23    2.66
  -5   5  17   -0.97    2.44
   5  -5 -17   -6.81    4.63
  -5  -5 -17   -7.28    4.91
  -5   5 -17    3.10    2.77
  -5  -5  18   14.89    4.56
  -5  -5 -18   21.44    6.02
   5  -5 -18   16.48    4.99
  -5  -5 -18   21.19    5.92
  -5   5 -18   15.54    4.90
   5   5 -18   17.61    5.00
  -5  -5  19   -0.57    2.67
   5   5 -19    5.49    3.38
  -5  -5 -19    3.07    3.62
  -5  -5 -19    8.61    5.19
  -5   5 -19    3.79    3.95
   5  -5 -19    7.23    4.46
   5  -5 -20    6.77    4.48
  -5  -5  20    0.55    2.81
  -5  -5 -20    0.51    3.49
  -5  -5 -20   -3.17    4.18
  -5   5 -20    5.47    3.65
   5   5 -20   -3.30    4.08
  -5  -5  21   56.49    8.38
   5   5 -21   53.25    8.67
  -5  -5 -21   70.22    9.77
   5  -5 -21   70.09    9.81
  -5  -5 -21   66.52   10.21
  -5   5 -21   62.13    9.44
  -5  -5  22    9.21    4.77
  -5  -5 -22   11.52    5.28
   5  -5 -22   15.50    5.79
   5   5 -22    8.68    4.30
  -5  -5 -22   12.89    5.84
  -5   5 -22    9.11    4.93
  -5  -5  23   31.94    6.59
   5  -5 -23   40.70    8.28
  -5  -5 -23   31.66    6.99
  -5  -5 -23   30.58    7.51
   5   5 -23   29.90    7.36
  -5   5 -23   29.73    7.48
  -5  -5  24   35.86    7.59
   5   5 -24   36.52    8.22
   5  -5 -24   32.30    7.78
  -5  -5 -24   28.29    7.04
  -5   5 -24   29.49    7.15
  -5  -5 -24   33.18    7.20
  -5  -5  25    0.19    2.96
  -5  -5 -25    2.22    4.26
   5  -5 -25    6.81    4.48
  -5  -5  26   13.98    5.06
  -5  -5 -26   22.62    6.44
  -5  -6   0    8.88    4.65
  -5   6   0    3.02    2.85
   5  -6   0    2.84    3.11
  -5   6   0    0.11    1.84
  -5   6   0    0.21    0.76
   5   6   0   -2.20    2.35
  -5   6   0   -7.86    4.23
  -5  -6   0   -4.04    3.16
  -5   6   1  460.35   12.93
   5  -6   1  486.11   17.77
  -5   6  -1  472.64   17.56
  -5   6   1  466.53   17.30
  -5  -6   1  487.61   20.11
   5   6  -1  466.38   15.00
  -5   6   1  469.95   13.93
  -5   6  -1  472.55   15.25
   5   6   1  479.07   15.68
  -5  -6  -1  459.22   19.66
  -5  -6   1  482.29   20.16
  -5   6  -1  457.31   10.57
  -5   6  -1  470.16   18.35
  -5  -6  -1  445.67   14.36
  -5   6   1  452.31   18.00
  -5  -6   1  461.73   14.53
   5  -6  -1  487.56   18.53
  -5   6   2  232.67    8.51
  -5   6  -2  229.84   12.85
   5  -6   2  235.04   12.43
  -5   6   2  231.06   12.28
  -5  -6   2  260.76   15.15
   5   6  -2  233.96   10.71
  -5  -6   2  243.03   14.89
  -5   6  -2  225.53   11.08
   5   6   2  223.93   10.99
  -5  -6  -2  253.62   14.86
  -5   6  -2  227.20    8.36
  -5   6  -2  220.66   13.20
  -5  -6  -2  221.63   10.30
  -5   6   2  218.63   12.71
  -5  -6   2  243.10   10.73
   5  -6  -2  247.36   13.49
  -5   6   3  252.60    8.08
  -5   6  -3  254.27   13.43
  -5  -6   3  268.54   15.00
  -5   6   3  243.05   12.46
   5   6  -3  246.69   10.84
   5  -6   3  261.65   12.47
   5   6  -3  264.68   12.07
  -5   6  -3  253.27   12.21
   5   6   3  248.80   11.88
  -5   6  -3  245.74   13.79
  -5   6  -3  248.48    9.47
  -5  -6  -3  250.17   11.16
  -5  -6   3  253.89   14.97
  -5   6   3  240.93   13.04
  -5  -6   3  250.06   11.05
   5  -6  -3  254.57   14.06
  -5   6   4   82.51    4.04
  -5   6  -4   91.23    8.29
  -5  -6   4   91.77    9.19
   5   6  -4   72.32    5.99
  -5   6   4   73.42    6.78
   5   6   4   73.74    6.64
   5   6  -4   88.25    7.37
  -5   6  -4   79.75    7.27
  -5   6  -4   82.55    6.07
  -5  -6   4   89.67    9.01
   5  -6  -4   72.18    7.72
  -5   6   4   88.48    8.64
  -5  -6   4   72.39    6.01
  -5   6   5  126.94    3.67
  -5  -6   5  152.23   11.30
   5   6  -5  138.19    8.10
  -5   6   5  145.29    9.51
   5   6  -5  141.37    9.36
  -5   6  -5  142.96    9.86
  -5   6  -5  146.04    8.40
  -5  -6   5  138.18   11.15
   5   6   5  141.30    9.48
  -5   6   5  141.11   10.78
   5  -6  -5  146.31   11.15
  -5  -6   5  129.53    8.14
  -5   6   6   13.87    4.26
   5   6   6    8.53    2.80
   5  -6  -6    4.53    3.65
  -5  -6   6   14.50    4.46
  -5  -6   6    8.62    3.91
   5   6  -6   11.29    3.09
  -5   6  -6   15.09    4.37
  -5  -6  -6   22.97    6.43
   5   6  -6    7.19    2.45
  -5   6   6   15.23    3.94
  -5   6  -6   13.68    3.00
   5  -6  -7   10.70    3.57
  -5   6   7   19.70    4.20
  -5  -6  -7   23.40    6.21
  -5  -6   7   24.46    4.85
   5   6   7   22.18    4.37
  -5  -6   7   23.50    5.24
   5   6  -7   18.26    3.35
  -5   6  -7   20.51    3.99
   5   6  -7   13.32    3.42
   5  -6  -7   35.77    6.64
  -5   6  -7   22.67    3.97
  -5   6   7   18.89    3.96
  -5   6   8   43.45    6.35
   5   6  -8   53.01    5.59
  -5  -6   8   46.81    6.61
  -5  -6   8   48.12    6.97
   5  -6  -8   44.40    6.45
   5  -6  -8   60.73    8.15
  -5   6  -8   43.28    6.29
   5   6  -8   38.07    4.99
  -5  -6  -8   51.91    7.71
  -5   6  -8   50.77    5.88
   5   6   8   59.50    6.80
  -5   6   8   42.85    5.64
   5   6   9  249.66   14.04
  -5  -6   9  242.71   14.83
   5   6  -9  246.93   11.76
   5   6  -9  245.43   13.42
   5  -6  -9  241.68   14.50
  -5  -6  -9  249.61   15.38
  -5   6   9  249.67   13.32
   5  -6  -9  227.96   14.93
  -5   6  -9  251.61   13.10
  -5   6   9  237.11   14.49
  -5  -6   9  249.12   14.73
   5   6 -10    2.45    2.42
  -5   6  10    2.47    2.21
  -5   6  10    3.42    2.43
   5   6 -10    6.79    3.07
  -5  -6  10   -0.51    3.25
  -5  -6  10    1.56    3.31
   5   6  10    3.93    2.17
  -5  -6 -10   11.85    5.16
   5  -6 -10    4.48    4.13
   5  -6 -10   -2.10    4.98
  -5   6 -10    5.80    3.08
   5  -6 -11   51.69    7.22
   5   6 -11   57.89    6.32
  -5  -6  11   51.92    7.34
   5   6  11   49.70    6.75
   5   6 -11   48.64    6.76
  -5  -6 -11   51.37    8.26
  -5   6  11   49.52    6.60
  -5   6 -11   54.33    6.67
  -5  -6  12  159.57   12.76
   5   6  12  161.97   12.24
  -5   6  12  157.49   11.23
   5   6 -12  158.79   11.54
   5  -6 -12  160.97   12.32
  -5  -6 -12  163.54   13.78
  -5   6 -12  176.05   12.32
   5   6  13   44.95    6.85
  -5  -6  13   51.43    7.59
   5   6 -13   50.23    6.93
   5  -6 -13   54.30    7.69
  -5  -6 -13   42.94    7.42
  -5   6 -13   50.68    7.18
  -5   6  13   53.05    6.97
  -5  -6  14    5.37    3.76
  -5   6  14    6.13    3.01
  -5  -6 -14    5.66    3.70
   5   6 -14    1.13    3.25
   5  -6 -14   -3.35    3.90
   5   6  14    1.55    3.00
  -5  -6 -14    9.79    5.29
  -5   6 -14    3.07    3.26
  -5  -6  15  141.79   12.43
   5   6 -15  146.56   12.29
   5  -6 -15  137.33   12.17
  -5  -6 -15  153.84   12.50
  -5  -6 -15  143.22   13.51
  -5   6 -15  139.65   12.03
  -5   6  15  145.69   11.63
  -5  -6 -16    8.34    5.03
  -5  -6  16   -3.56    4.59
  -5   6  16   -1.40    2.90
   5   6 -16   -0.25    3.01
   5  -6 -16   -4.35    4.20
  -5  -6 -16    4.14    3.78
  -5   6 -16    2.74    2.78
  -5  -6  17   -6.43    5.05
  -5  -6 -17    9.60    4.74
  -5   6  17    4.76    2.82
   5   6 -17   11.23    4.57
  -5  -6 -17    5.04    3.89
   5  -6 -17   -0.52    4.31
  -5   6 -17    5.55    3.28
  -5  -6  18   -1.81    3.64
  -5  -6 -18   -0.01    2.79
  -5   6  18    1.05    2.50
   5   6 -18    0.57    3.36
   5  -6 -18   -6.70    4.92
  -5  -6 -18   -1.82    3.33
  -5   6 -18    5.32    4.18
  -5  -6  19    7.14    4.12
  -5   6  19    6.19    3.69
   5   6 -19    9.80    4.43
  -5  -6 -19   14.09    4.59
   5  -6 -19    4.71    3.17
  -5  -6 -19   12.86    5.47
  -5   6 -19   12.98    5.10
  -5  -6  20  146.61   13.70
  -5  -6 -20  177.84   16.14
   5   6 -20  148.56   13.98
   5  -6 -20  155.09   14.16
  -5  -6 -20  162.66   14.04
   5  -6 -20  156.34   15.15
  -5   6 -20  153.78   14.33
  -5  -6  21   -4.26    3.84
  -5  -6 -21    2.77    4.14
   5  -6 -21    5.02    4.97
   5   6 -21    0.53    4.01
   5  -6 -21  -12.46    5.79
  -5   6 -21   -7.33    4.46
  -5  -6 -21    4.22    4.06
   5   6 -22  128.05   13.71
   5  -6 -22  116.52   12.84
  -5  -6 -22  122.30   12.83
  -5  -6 -22  138.83   14.75
   5  -6 -22  119.67   13.75
  -5   6 -22  125.48   13.64
  -5  -6  22  113.57   12.60
  -5  -6  23   12.98    5.60
  -5  -6 -23   20.43    6.10
   5  -6 -23    8.54    4.91
   5  -6 -23   30.12    7.45
  -5  -6 -23   18.04    6.56
   5   6 -23   13.39    5.52
  -5   6 -23   13.23    5.68
  -5  -6  24   35.07    7.80
   5  -6 -24   23.81    6.89
  -5  -6 -24   23.08    6.49
   5   6 -24   24.70    6.67
  -5  -6  25    8.37    3.90
  -5  -6 -25    7.40    4.48
   5  -6 -25   11.52    5.12
  -5  -7   0   -2.51    1.86
  -5  -7   0   -1.81    4.36
  -5   7   0   -2.42    3.11
  -5   7   0    0.29    1.75
  -5   7   0   -0.39    0.67
   5  -7   0    1.89    3.65
   5   7   0   -2.03    2.20
  -5   7   0   -8.00    4.76
  -5  -7   0    5.90    4.08
  -5  -7   1   63.65    8.27
   5   7   1   49.87    5.74
  -5  -7  -1   63.40    8.51
   5  -7  -1   54.65    7.23
  -5   7   1   52.56    4.85
   5  -7   1   55.65    7.27
  -5  -7   1   62.52    7.99
  -5  -7  -1   50.48    7.26
   5   7  -1   55.49    6.00
  -5   7  -1   51.10    6.61
  -5   7  -1   50.30    5.14
  -5   7   1   54.07    6.83
  -5   7  -1   49.30    3.50
  -5  -7   1   46.65    4.54
  -5   7  -1   42.98    6.23
  -5   7   1   41.10    5.23
  -5  -7  -1   40.08    4.13
   5  -7  -2  447.89   19.16
  -5   7  -2  427.36   18.59
  -5  -7   2  433.70   19.93
  -5   7   2  428.85   17.87
   5   7  -2  439.52   15.90
  -5   7  -2  424.85   14.89
   5   7   2  437.20   16.77
  -5  -7   2  448.57   20.10
  -5   7  -2  434.42   11.42
  -5   7  -2  458.92   18.66
  -5  -7  -2  411.77   13.42
  -5   7   2  436.92   18.19
  -5  -7   2  439.51   13.67
   5  -7  -3  159.98   12.06
  -5   7  -3  160.46   11.58
  -5  -7   3  184.19   13.06
   5   7   3  167.71   10.56
  -5   7   3  183.38   11.92
   5   7  -3  165.52    9.84
  -5   7  -3  171.42    9.98
  -5  -7   3  172.96   12.84
  -5   7  -3  171.73   12.04
  -5  -7  -3  165.79    8.74
  -5   7  -3  166.45    7.84
  -5   7   3  196.11   12.41
  -5  -7   3  161.61    8.53
   5  -7  -4  141.71   11.53
  -5   7  -4  128.24   10.50
  -5  -7   4  141.11   11.60
   5   7  -4  129.74    8.76
  -5   7   4  134.19   10.10
   5   7  -4  133.79    8.64
  -5   7  -4  121.95    8.87
  -5  -7  -4  131.22    8.09
   5   7   4  119.79    9.13
  -5  -7   4  126.77   11.04
  -5   7  -4  133.07    7.63
  -5   7   4  151.86   11.14
  -5  -7   4  122.56    7.45
   5   7  -5   41.99    5.29
  -5   7   5   43.69    6.22
  -5  -7   5   49.22    7.18
   5   7   5   43.94    6.11
   5  -7  -5   41.45    6.62
  -5   7  -5   47.92    7.06
  -5  -7   5   45.65    7.09
  -5   7  -5   45.40    5.83
   5   7  -5   45.12    5.64
  -5   7   5   37.10    5.27
  -5   7  -5   43.24    4.83
  -5   7   6   -0.02    2.82
   5   7  -6    2.76    2.09
   5  -7  -6    3.67    3.58
  -5   7  -6    6.43    4.04
  -5  -7   6    3.99    3.37
   5   7   6    6.06    2.94
  -5  -7   6    0.26    3.69
   5   7  -6    5.47    2.55
  -5   7  -6    0.38    2.72
  -5   7   6    6.84    3.42
  -5   7  -6    5.74    2.36
  -5   7   7    0.70    2.57
   5   7   7    1.46    2.34
  -5  -7   7    2.19    3.12
  -5  -7   7   -4.98    4.57
   5   7  -7    0.65    2.02
  -5   7  -7   -1.11    2.83
   5   7  -7   -2.78    3.01
  -5   7  -7   -0.92    2.06
  -5   7   7    1.87    2.47
   5  -7  -7   -4.09    4.48
  -5   7   8   41.72    6.37
  -5  -7   8   46.73    7.07
   5   7   8   46.98    6.47
  -5  -7   8   43.80    6.60
   5   7  -8   41.60    5.25
  -5  -7  -8   40.02    7.13
   5   7  -8   39.25    5.20
  -5   7  -8   51.61    5.92
   5  -7  -8   38.69    6.84
  -5   7   8   48.25    6.39
  -5  -7   9  170.78   13.09
   5   7  -9  175.86   10.80
  -5  -7  -9  181.70   14.08
  -5   7   9  188.86   12.65
   5   7  -9  167.51   11.17
   5  -7  -9  175.74   12.39
  -5   7  -9  185.85   11.53
   5  -7  -9  183.20   13.76
  -5  -7   9  187.77   13.37
  -5   7   9  180.24   12.91
   5   7   9  187.07   12.85
  -5   7  10    0.22    2.42
  -5  -7  10   -1.01    4.04
   5   7 -10    4.53    3.17
   5   7  10    1.55    2.38
  -5  -7  10   -3.36    3.64
   5   7 -10   11.75    4.02
  -5  -7 -10    7.72    4.06
   5  -7 -10   12.51    4.67
   5  -7 -10   -2.38    4.62
  -5   7 -10    4.55    2.86
   5   7 -11   58.24    6.67
  -5  -7  11   49.13    7.58
   5   7  11   52.12    7.01
   5   7 -11   59.04    7.05
  -5  -7  11   60.55    7.61
  -5  -7 -11   57.78    8.60
  -5   7  11   56.60    7.17
   5  -7 -11   46.74    7.75
   5  -7 -11   69.39    8.32
  -5   7 -11   57.03    7.21
  -5   7  12   20.47    4.87
  -5  -7  12   19.25    4.96
   5   7 -12   23.83    4.48
   5   7  12   19.41    4.81
   5   7 -12   20.18    4.65
  -5  -7  12   20.49    4.61
  -5  -7 -12   17.48    5.66
   5  -7 -12   19.98    5.20
   5  -7 -12   20.31    5.76
  -5   7 -12   23.26    5.13
   5   7  13   65.49    8.53
  -5  -7  13   59.84    8.34
   5   7 -13   60.47    7.57
   5  -7 -13   67.11    8.49
  -5   7 -13   78.54    8.73
  -5  -7 -13   66.18    9.45
   5  -7 -13   73.17    9.44
  -5   7  13   66.92    7.92
   5   7  14   72.60    9.04
  -5  -7  14   67.68    9.12
   5   7 -14   81.84    9.00
   5  -7 -14   68.54    9.56
  -5  -7 -14   79.63   10.63
   5  -7 -14   72.66    8.93
  -5   7 -14   75.82    8.62
  -5   7  14   80.27    8.97
  -5  -7  15   13.93    4.85
  -5   7  15   12.23    4.40
   5   7  15   13.13    4.25
   5  -7 -15    7.24    4.08
   5  -7 -15   18.68    5.38
  -5  -7 -15   27.72    7.19
  -5   7 -15   22.09    5.22
   5   7 -15   12.14    4.26
  -5  -7  16   16.86    4.93
   5   7 -16   17.17    5.18
  -5   7  16   20.50    4.95
   5  -7 -16   10.14    4.20
   5  -7 -16    9.66    3.92
  -5  -7 -16   24.00    6.43
  -5   7 -16   19.13    5.20
   5   7  16   21.34    5.60
   5   7 -17    0.12    3.48
  -5  -7  17   -5.63    4.72
  -5   7  17    2.26    2.83
   5  -7 -17   -4.69    5.33
   5  -7 -17   -5.10    3.87
  -5  -7 -17    5.72    4.68
  -5   7 -17   -3.17    3.57
  -5  -7  18   -1.22    3.68
  -5   7  18    0.90    2.32
  -5  -7 -18   -1.73    3.45
   5  -7 -18   -2.62    3.90
   5  -7 -18   -5.64    4.90
  -5  -7 -18    0.59    3.45
  -5   7 -18    3.22    3.02
   5   7 -18   -2.98    3.54
  -5  -7  19    7.53    4.03
  -5   7  19    1.08    2.36
  -5  -7 -19    4.02    3.53
   5   7 -19    1.38    2.61
   5  -7 -19    4.23    3.44
  -5  -7 -19   -0.96    4.49
  -5   7 -19    9.48    4.58
  -5  -7 -20   -0.46    3.21
  -5  -7  20   -0.61    3.41
  -5   7  20    0.26    2.32
   5   7 -20    6.58    4.45
   5  -7 -20   -3.12    4.37
   5  -7 -20    2.80    3.88
  -5  -7 -20    6.72    4.76
  -5   7 -20    2.80    3.81
  -5  -7  21    7.58    4.67
   5   7 -21    3.75    3.03
  -5   7  21    1.98    2.60
   5  -7 -21    7.03    3.90
   5  -7 -21    1.22    3.14
  -5   7 -21   -0.10    3.46
  -5  -7 -21   10.09    4.93
  -5  -7 -21    5.97    4.61
  -5  -7  22    5.79    4.38
   5   7 -22    2.97    3.18
  -5  -7 -22   -2.12    3.23
   5  -7 -22   -9.06    5.26
  -5  -7 -22   -1.67    4.53
   5  -7 -22   -5.13    5.56
  -5   7 -22   -2.77    3.78
   5  -7 -23   -0.10    3.67
  -5  -7  23    3.58    3.83
   5   7 -23    3.94    4.05
  -5  -7 -23    5.92    3.69
  -5   7 -23    1.88    3.41
   5  -7 -24   -7.09    5.24
   5  -7 -25    1.87    3.03
  -5  -8   0   -2.45    2.12
  -5   8   0    0.71    1.52
  -5  -8   0    0.14    3.94
   5   8   0    1.26    2.67
  -5   8   0    6.01    3.65
  -5  -8   0    6.37    4.49
  -5   8   0   -7.50    4.41
  -5   8   1  611.33   15.11
  -5   8  -1  603.44   23.10
  -5  -8   1  645.05   25.26
  -5   8   1  598.95   22.91
  -5  -8  -1  614.50   24.89
   5  -8  -1  629.23   23.41
   5   8  -1  616.02   20.75
   5   8   1  604.68   20.82
  -5   8  -1  585.11   16.77
  -5  -8   1  628.39   24.65
  -5   8  -1  614.50   21.70
  -5   8   1  590.82   21.66
  -5  -8  -1  619.35   14.87
  -5  -8   1  581.75   14.48
  -5   8  -2  120.33   10.64
  -5  -8   2  126.01   11.54
  -5   8   2  130.44   10.76
   5  -8  -2  130.24   11.41
  -5  -8  -2  119.39   11.22
   5   8  -2  116.24    9.14
   5   8   2  121.01    9.82
  -5  -8   2  140.70   12.43
  -5   8  -2  112.99    9.77
  -5  -8  -2  117.23    6.69
  -5   8   2  119.80    9.68
  -5  -8   2  119.68    6.62
  -5   8  -2  120.72    8.17
   5   8   3   -0.26    3.09
  -5   8   3    5.01    3.25
  -5  -8   3    6.39    4.53
  -5  -8   3    1.21    4.22
  -5   8  -3    0.24    3.69
  -5  -8  -3    0.21    4.55
  -5   8  -3    4.67    2.43
   5  -8  -3    6.16    5.04
  -5   8   3    0.16    3.90
  -5   8  -3   -3.71    3.51
   5   8  -3    0.17    2.62
  -5   8  -3    4.18    1.65
  -5  -8  -3   -0.43    1.83
  -5   8   4   19.66    5.08
   5   8   4   23.39    4.90
  -5  -8   4   27.26    6.94
   5  -8  -4   35.38    7.45
  -5  -8   4   21.87    6.16
  -5   8  -4   22.01    5.66
   5   8  -4   23.96    4.38
  -5   8  -4   17.30    3.83
  -5   8   4   17.82    4.47
   5   8  -4   25.46    4.49
  -5   8  -4   19.56    3.14
  -5   8  -4   14.64    4.71
  -5  -8  -4   19.00    3.32
   5  -8  -5 1062.72   32.49
  -5   8  -5 1065.21   31.51
  -5  -8  -5 1058.82   21.70
  -5  -8   5 1134.38   33.73
   5   8  -5 1063.45   27.03
  -5   8   5 1071.60   30.42
   5   8  -5 1063.24   23.98
  -5   8  -5 1044.45   26.32
   5   8   5 1075.51   29.09
  -5  -8   5 1071.54   32.20
  -5   8  -5 1053.64   22.72
  -5   8   5 1054.66   29.41
  -5   8   6   13.81    4.52
  -5  -8   6   27.83    6.97
   5   8   6   12.53    4.02
  -5   8  -6   17.85    6.22
  -5  -8   6   23.27    6.31
   5   8  -6   14.92    4.16
  -5   8  -6   17.44    4.64
   5   8  -6   19.31    4.03
   5  -8  -6   24.35    6.60
  -5   8   6   26.86    6.01
  -5   8  -6   21.58    4.22
   5  -8  -7    2.40    3.67
  -5   8   7    2.72    2.74
  -5  -8   7   -1.24    2.95
   5   8   7    1.22    2.24
  -5   8  -7    6.70    4.26
  -5  -8   7    3.57    3.96
   5   8  -7    2.80    2.98
  -5   8  -7    6.13    3.40
   5   8  -7    1.07    2.12
  -5   8   7    2.81    2.91
  -5   8  -7    3.09    2.48
  -5   8   8   24.33    5.51
   5   8   8   30.68    5.91
  -5  -8   8   26.94    5.99
  -5  -8   8   29.84    6.52
   5  -8  -8   31.13    7.55
   5   8  -8   26.02    5.14
   5   8  -8   20.25    4.03
  -5   8  -8   26.44    4.59
  -5   8   8   29.50    5.53
  -5  -8   9  542.14   24.07
   5   8  -9  486.27   19.22
   5   8  -9  480.58   18.48
  -5   8  -9  501.58   19.09
  -5  -8   9  484.11   21.75
  -5   8   9  502.30   21.39
   5   8   9  478.72   21.19
  -5   8   9  473.66   21.14
   5  -8  -9  488.56   23.60
  -5  -8  10   75.57   10.06
   5   8 -10   73.24    7.83
   5  -8 -10   74.31   10.15
   5   8 -10   85.73    8.27
  -5  -8 -10   92.29   11.10
  -5   8  10   80.89    8.86
  -5   8 -10   85.80    8.54
  -5  -8  10   71.07    8.70
   5   8  10   95.20    9.86
  -5   8  11   26.99    5.14
   5  -8 -11   27.73    6.41
  -5  -8 -11   31.05    7.13
  -5  -8  11   25.00    6.11
   5   8 -11   32.98    5.53
   5   8  11   32.79    6.03
  -5  -8  11   33.49    6.12
   5   8 -11   36.54    6.29
   5  -8 -11   34.03    6.13
  -5   8 -11   31.72    5.48
   5  -8 -12   49.65    8.44
  -5   8  12   31.71    5.66
  -5  -8  12   50.03    8.19
   5   8 -12   43.93    6.53
   5   8  12   41.66    6.79
  -5  -8  12   46.67    7.20
   5   8 -12   46.23    6.84
  -5  -8 -12   48.23    8.53
   5  -8 -12   44.40    7.42
  -5   8 -12   38.82    6.47
   5   8  13  158.05   13.41
  -5  -8  13  178.28   14.88
   5   8 -13  169.99   12.16
   5   8 -13  161.57   12.12
   5  -8 -13  169.56   13.05
  -5  -8 -13  176.21   15.18
  -5   8  13  165.14   13.13
  -5   8 -13  156.37   12.52
   5  -8 -13  179.48   15.35
  -5  -8  13  179.45   13.49
   5  -8 -14   -3.36    3.52
   5   8 -14    0.62    2.42
  -5  -8  14   -1.94    3.96
   5   8 -14    4.44    3.52
  -5   8  14   -1.65    2.45
   5   8  14    0.97    2.32
  -5  -8 -14    3.46    3.49
   5  -8 -14    3.14    3.72
  -5   8 -14    3.13    2.51
   5  -8 -15    9.52    4.71
   5   8 -15   10.54    4.02
  -5  -8  15    8.23    3.58
  -5   8  15    9.93    3.92
   5   8  15    2.81    2.30
   5   8 -15    7.35    3.68
   5  -8 -15   14.18    4.69
  -5  -8 -15   12.04    5.42
  -5   8 -15    2.14    2.47
   5  -8 -16    1.99    4.34
  -5  -8  16    0.01    4.26
  -5   8  16    4.52    3.59
   5   8  16    1.69    2.91
   5   8 -16    1.03    2.62
   5  -8 -16    6.67    3.46
  -5  -8 -16    7.67    4.77
  -5   8 -16   -1.27    2.98
  -5  -8  17  109.16   12.14
   5   8  17  109.07   12.14
   5   8 -17  120.94   11.67
   5  -8 -17  107.47   11.18
  -5  -8 -17  128.54   13.59
  -5   8 -17  108.10   11.42
   5  -8 -17  106.73   12.89
  -5   8  17  116.56   11.88
   5  -8 -18    1.62    4.29
  -5  -8  18    5.11    3.81
  -5   8  18    1.57    3.20
  -5  -8 -18   10.91    6.05
   5   8  18    0.83    2.84
   5  -8 -18    1.70    3.39
   5   8 -18   -2.21    3.02
  -5   8 -18   -0.59    3.38
   5  -8 -19   83.39   11.81
  -5  -8  19   93.02   11.85
  -5   8  19   86.74   10.60
   5   8 -19   84.34   10.59
   5  -8 -19   84.53   10.39
  -5   8 -19   89.26   11.05
  -5  -8 -19   92.54   12.06
   5  -8 -20    7.88    4.72
  -5  -8  20    5.70    4.17
  -5   8  20    4.21    3.29
   5  -8 -20   -1.97    3.73
  -5  -8 -20   16.68    6.44
  -5   8 -20    7.71    4.88
   5   8 -20    9.31    4.56
  -5  -8  21   23.41    6.52
  -5   8  21   38.15    7.56
   5   8 -21   22.55    6.16
   5  -8 -21   16.19    5.17
  -5  -8 -21   28.23    7.76
  -5   8 -21   30.38    7.15
   5   8 -22    6.40    4.02
  -5   8  22    8.12    4.44
  -5  -8 -22   18.86    6.65
  -5   8 -22   12.41    5.51
   5   8 -23   76.87   11.08
  -5  -9   0    1.62    4.09
  -5   9   0   -1.50    3.22
   5   9   0    0.67    2.61
  -5   9   0   -2.68    3.60
  -5  -9   1  253.43   16.71
  -5   9  -1  264.18   16.20
  -5   9   1  258.62   15.93
  -5  -9  -1  268.48   16.90
   5   9  -1  243.65   14.15
   5   9   1  237.02   14.15
  -5   9  -1  237.35   13.69
  -5   9   1  252.93   14.25
  -5  -9   1  229.49   16.20
  -5   9   2   16.03    4.39
  -5  -9   2   12.66    4.65
  -5  -9  -2   19.57    5.97
  -5   9  -2   25.19    6.29
  -5   9  -2   12.01    2.97
  -5   9   2    9.70    4.16
   5   9  -2    8.44    2.89
   5   9   2    9.27    3.44
  -5   9  -2    6.96    2.63
  -5  -9   2   21.34    6.60
  -5   9   3    5.87    2.79
   5  -9  -3   11.67    5.26
  -5  -9   3   13.36    5.71
  -5  -9  -3    1.17    3.73
  -5   9  -3   -6.32    4.60
  -5   9  -3    9.07    2.78
  -5   9   3    1.21    3.41
   5   9  -3    2.07    2.88
  -5   9  -3    6.18    3.07
   5   9   3    3.04    2.30
  -5  -9   3   13.48    5.44
   5  -9  -4   59.34    8.98
  -5  -9   4   47.53    8.12
   5   9   4   47.36    6.81
  -5   9   4   41.80    6.13
  -5  -9   4   48.84    8.21
  -5   9  -4   44.48    7.38
  -5  -9  -4   36.11    6.76
  -5   9  -4   39.28    5.11
   5   9  -4   33.95    5.49
  -5   9   4   39.55    6.42
  -5   9  -4   45.81    6.62
  -5  -9   5   42.50    7.43
   5   9   5   37.86    6.21
  -5   9   5   38.64    6.08
   5  -9  -5   51.65    8.68
  -5  -9   5   40.97    7.58
  -5   9  -5   39.19    7.07
  -5  -9  -5   52.52    8.18
   5   9  -5   37.24    5.80
  -5   9  -5   39.94    5.51
  -5   9   5   46.15    7.05
  -5   9  -5   46.92    7.04
  -5  -9   6  118.59   12.16
  -5   9  -6  119.07   11.55
   5  -9  -6  107.25   11.53
   5   9  -6  111.56    9.67
  -5   9   6  111.06   10.77
  -5   9  -6  101.96    8.82
  -5  -9   6  106.66   11.29
   5   9   6  108.61   10.33
  -5   9  -6  109.34    8.04
  -5   9   6  107.39    9.72
  -5   9   7    3.50    2.96
  -5  -9   7    7.04    4.46
   5   9   7    3.92    3.32
  -5  -9   7   10.61    5.70
  -5   9  -7    2.01    4.29
   5   9  -7    1.34    2.56
   5  -9  -7    9.56    6.00
  -5   9   7    2.74    3.59
  -5   9  -7   -0.37    1.80
  -5   9  -7    2.57    2.94
  -5   9   8   16.22    4.42
  -5  -9   8   15.17    4.88
   5   9   8   22.13    5.41
   5  -9  -8   19.52    6.61
  -5   9  -8   17.56    5.69
  -5  -9   8   15.55    5.90
   5   9  -8   10.55    3.81
  -5   9  -8   13.67    3.32
  -5   9   8   20.34    4.98
   5  -9  -9   26.17    6.77
  -5   9  -9   17.56    5.33
   5   9   9   20.96    4.95
  -5  -9   9   25.75    6.31
  -5  -9   9   15.91    4.72
   5   9  -9   22.34    4.82
  -5   9  -9   22.46    4.62
  -5   9   9   17.88    4.79
  -5   9  10    7.50    3.33
  -5  -9  10   13.91    5.25
   5   9  10   12.50    4.12
  -5  -9  10   17.12    4.84
   5   9 -10    5.75    3.21
   5   9 -10    4.28    2.25
  -5   9 -10   12.16    3.43
   5  -9 -10   10.81    4.64
  -5   9  11   23.21    5.65
  -5  -9  11   21.54    5.94
   5   9  11   22.40    5.52
   5   9 -11   30.02    5.46
  -5  -9  11   17.66    5.12
   5   9 -11   28.69    5.23
   5  -9 -11   26.47    6.40
  -5   9 -11   25.06    5.07
  -5  -9  12   85.63   11.03
   5   9 -12   77.88    8.79
   5   9 -12   78.80    8.47
   5  -9 -12   75.28   10.55
  -5   9  12   78.69    9.77
  -5   9 -12   73.53    8.46
  -5  -9  12   76.05    9.19
   5   9  12   71.81    9.34
  -5   9  13   -1.10    2.48
  -5  -9  13    2.06    3.34
   5   9 -13    4.20    3.36
   5   9  13    1.97    3.49
  -5  -9  13    0.22    2.72
   5   9 -13    3.89    3.05
  -5  -9 -13    1.93    4.06
   5  -9 -13    1.23    3.42
   5  -9 -13    0.93    2.60
  -5   9 -13    0.26    2.39
   5  -9 -14   10.21    5.32
  -5  -9  14    3.58    4.19
  -5   9  14    1.02    2.54
   5   9 -14    4.59    3.10
   5   9  14    6.05    3.76
   5   9 -14    5.85    3.33
  -5  -9 -14    1.27    3.40
  -5  -9  14    1.00    2.63
   5  -9 -14    9.83    4.21
  -5   9 -14    1.44    2.44
  -5  -9  15   16.66    5.65
  -5   9  15   23.46    5.73
   5   9 -15   24.76    5.85
   5   9  15   20.94    5.80
  -5  -9 -15   18.13    6.42
   5  -9 -15   30.87    7.66
   5   9 -15   20.17    4.54
   5  -9 -15   26.08    5.68
  -5   9 -15   21.13    5.42
  -5  -9  16   16.47    5.60
  -5   9  16   33.14    6.81
   5   9  16   29.30    6.69
   5  -9 -16   26.56    7.37
  -5  -9 -16   35.47    7.53
  -5   9 -16   36.24    7.07
   5   9 -16   30.66    6.15
  -5  -9  17    2.26    3.47
  -5   9  17    9.94    4.31
   5  -9 -17    3.68    4.06
   5   9  17    9.89    4.58
   5   9 -17    7.51    3.74
  -5  -9 -17    9.38    5.17
  -5   9 -17    3.79    3.05
  -5  -9  18   -0.54    3.08
  -5   9  18   -0.86    2.59
   5  -9 -18   -1.99    3.70
   5   9  18   -3.68    3.75
   5   9 -18    2.28    2.89
  -5  -9 -18    2.33    3.84
  -5   9 -18   -3.26    3.65
   5   9  19    2.70    3.45
  -5  -9  19   -3.09    3.71
  -5   9  19   -1.25    3.19
   5   9 -19    0.90    3.07
  -5  -9 -19    8.21    5.11
  -5   9 -19    3.13    3.55
  -5   9  20   19.56    5.54
  -5  -9 -20   10.21    5.57
   5   9 -20   11.62    4.80
  -5   9 -20   10.23    4.61
  -5   9  21    3.00    3.30
  -5   9 -21    0.56    3.23
  -5   9  22    3.60    3.54
  -5  10   0   -3.67    4.18
  -5  10   0   -1.67    4.16
  -5 -10   0    0.34    3.57
   5  10   0   -1.29    2.69
  -5  10   1   40.41    5.76
  -5  10   1   46.51    7.34
  -5 -10   1   54.78    8.56
  -5 -10  -1   62.74    9.06
  -5  10  -1   50.98    7.93
   5  10  -1   50.14    6.94
   5  10   1   53.11    7.19
  -5  10  -1   36.44    5.04
  -5 -10   2  159.54   13.92
  -5  10  -2  170.11   14.05
  -5 -10  -2  150.55   13.33
  -5  10   2  166.98   13.63
   5  10  -2  147.15   11.57
   5  10   2  162.23   12.49
  -5 -10   2  163.70   14.02
  -5  10  -2  147.30   10.80
  -5  10   2  159.45   11.28
  -5 -10   3  136.51   13.25
  -5  10  -3  132.19   12.59
  -5 -10  -3  115.22   11.89
  -5  10   3  126.87   12.12
   5  10  -3  115.65   10.42
   5  10   3  123.48   11.31
  -5 -10   3  123.86   12.43
  -5  10  -3  109.42    9.53
  -5  10   3  115.56    9.75
  -5 -10   4  288.73   19.17
  -5  10  -4  291.68   18.48
  -5 -10  -4  292.93   18.89
   5  10  -4  272.90   15.90
  -5  10   4  285.80   17.89
   5  10   4  273.40   16.44
  -5 -10   4  277.30   18.24
  -5  10  -4  270.77   15.17
  -5  10   4  279.81   15.43
   5 -10   4  299.21   15.65
  -5 -10   5  233.65   17.45
  -5  10  -5  208.96   15.89
  -5 -10  -5  227.03   16.80
   5  10  -5  198.79   13.79
  -5  10   5  226.00   15.94
   5  10   5  202.96   14.49
  -5 -10   5  223.68   16.37
  -5  10  -5  209.71   13.51
  -5  10   5  207.84   13.53
   5 -10   5  222.19   13.97
  -5 -10   6  206.11   16.19
  -5  10  -6  178.05   14.93
   5  10  -6  166.55   12.59
  -5 -10  -6  172.46   14.68
   5 -10  -6  184.83   15.37
  -5  10   6  193.30   14.76
   5  10   6  171.78   13.47
  -5 -10   6  192.88   15.12
  -5  10  -6  175.37   12.57
  -5  10   6  168.05   12.39
   5 -10   6  181.99   13.03
  -5  10  -6  174.50   11.42
  -5 -10   7    6.71    4.77
  -5  10   7    0.19    2.23
   5  10   7    2.43    3.09
  -5 -10   7   -0.87    3.81
  -5  10  -7   -0.20    3.76
  -5 -10  -7    8.23    5.08
   5 -10  -7    9.27    5.62
  -5  10  -7    2.04    2.44
   5  10  -7    2.93    2.78
  -5  10  -7    9.33    4.34
  -5  10   7    4.00    3.86
   5 -10   7    1.12    2.74
  -5 -10   8   16.62    5.05
   5  10   8   10.74    3.38
  -5 -10   8   27.66    7.29
  -5  10  -8   22.97    6.28
   5  10  -8   15.39    4.31
   5 -10  -8   22.97    6.82
  -5  10   8   25.22    6.19
   5 -10   8    9.48    3.61
  -5 -10   9    5.08    3.98
   5  10   9    2.20    2.94
   5 -10  -9    7.94    5.62
  -5 -10   9    1.38    4.13
  -5  10  -9   -0.40    3.03
   5  10  -9   -2.05    2.79
   5 -10   9    5.21    3.47
  -5  10   9    1.50    3.30
  -5  10  10    4.94    3.80
  -5 -10  10    5.46    3.78
  -5  10 -10   11.11    5.13
   5  10  10    5.49    3.44
  -5 -10  10    6.98    3.90
   5  10 -10    7.31    3.65
   5 -10 -10   10.11    5.92
  -5  10  11   38.46    7.05
  -5 -10  11   34.04    7.24
  -5  10 -11   48.40    8.78
   5  10  11   29.75    6.33
  -5 -10  11   47.05    7.80
   5  10 -11   34.94    6.22
   5 -10 -11   47.90    9.13
  -5  10 -11   40.26    6.23
  -5  10  12   23.99    6.00
  -5 -10  12   18.70    5.95
   5  10  12   20.38    5.51
   5  10 -12   17.69    4.92
  -5 -10  12   21.68    5.25
   5 -10 -12   19.28    6.21
  -5  10 -12   19.49    4.58
  -5  10  13   59.42    8.97
  -5 -10  13   56.93    9.09
   5  10  13   55.45    8.77
   5  10 -13   55.04    7.88
   5 -10 -13   64.29   10.32
  -5 -10  13   52.66    8.13
  -5  10 -13   55.78    7.64
  -5 -10  14   -2.77    4.52
  -5  10  14   -1.37    2.74
   5 -10 -14   -1.07    4.21
   5  10  14   -2.42    2.93
  -5 -10  14   -3.78    3.66
  -5  10 -14    1.58    2.32
  -5 -10  15    0.59    3.96
  -5  10  15    0.16    2.44
   5 -10 -15    5.74    5.25
   5  10  15   -0.36    2.67
  -5  10 -15    0.06    2.80
  -5 -10  16   53.63    9.31
   5 -10 -16   75.22   11.54
  -5  10  16   57.06    9.03
   5  10  16   58.13    9.36
  -5 -10 -16   54.94    9.49
  -5  10 -16   49.25    8.13
  -5 -10  17   -3.74    4.89
  -5  10  17    7.10    3.90
   5  10  17    7.65    4.17
  -5 -10 -17    4.26    4.33
  -5  10 -17    3.85    2.94
  -5  10  18    1.38    3.55
   5  10  18   -2.35    3.33
  -5 -10 -18    3.60    3.93
  -5  10 -18   -2.19    3.25
  -5  10  19   -2.24    3.30
  -5 -10 -19    5.68    4.10
  -5  10 -19    1.72    3.19
  -5  10  20   32.29    7.37
  -5  10 -20   32.78    7.59
  -5 -11   0    2.44    3.75
  -5  11   0   -0.36    3.02
   5  11   0    1.50    3.14
  -5 -11   1   -2.69    4.02
  -5 -11  -1   -0.60    3.55
  -5  11  -1   -0.87    3.24
  -5  11   1   -4.80    4.25
   5  11  -1   -0.74    2.28
   5  11   1   -2.82    3.05
  -5 -11   2   57.57    8.97
  -5 -11  -2   70.39    9.99
  -5  11  -2   69.53    9.56
  -5 -11   2   65.58    9.55
  -5  11   2   66.46    9.08
   5  11  -2   63.46    8.28
   5  11   2   65.32    8.45
  -5 -11   3   18.44    6.21
  -5 -11  -3   19.82    5.98
  -5  11  -3   20.68    6.15
  -5  11   3   13.93    4.33
   5  11  -3   15.22    4.07
  -5 -11   3   30.90    7.30
   5  11   3   19.94    5.06
   5  11   4    4.08    3.59
  -5 -11   4    6.23    4.60
  -5 -11  -4   -0.67    3.52
  -5  11  -4   10.62    5.21
   5  11  -4   -1.49    2.75
  -5  11   4   -2.32    4.26
   5 -11   4    3.93    2.97
  -5 -11   4    2.22    3.68
  -5 -11   5    7.99    4.72
   5  11   5    6.24    3.27
  -5  11   5   -1.39    3.12
  -5 -11   5    6.71    5.32
  -5 -11  -5    7.34    4.97
  -5  11  -5    3.08    4.66
   5  11  -5    3.72    2.67
   5 -11   5    1.49    2.80
  -5 -11   6    3.17    3.54
   5  11   6    2.69    3.27
  -5 -11   6   -5.25    4.84
  -5 -11  -6    0.79    3.67
  -5  11  -6   -2.23    4.06
   5  11  -6   -1.13    2.60
  -5  11   6    4.07    3.46
   5 -11   6    3.27    3.22
   5  11  -7   34.09    6.37
  -5 -11   7   42.96    7.80
   5  11   7   40.52    7.15
  -5 -11   7   43.69    8.22
  -5  11  -7   50.61    8.90
  -5 -11  -7   44.41    8.10
  -5  11   7   35.64    6.98
   5 -11   7   42.55    6.72
  -5 -11   8   21.18    6.12
   5  11   8   17.71    5.15
  -5 -11   8   17.02    5.78
  -5  11  -8   16.65    5.89
  -5 -11  -8    9.21    4.36
   5  11  -8   12.83    4.36
  -5  11   8   11.86    4.78
   5 -11   8   19.14    5.30
  -5 -11   9   56.15    8.89
   5  11   9   52.71    8.28
  -5 -11   9   78.69   10.95
  -5  11  -9   58.74    9.58
  -5 -11  -9   54.91    8.90
   5  11  -9   56.21    8.01
   5 -11   9   71.59    9.24
  -5  11   9   57.15    8.97
  -5  11  10   33.12    7.06
  -5 -11  10   38.64    8.11
  -5 -11  10   26.26    6.15
   5  11  10   33.53    7.05
  -5  11 -10   41.35    8.49
  -5 -11 -10   47.05    8.60
   5  11 -10   35.55    6.63
   5 -11 -10   50.66    9.73
   5 -11  10   36.95    6.97
   5 -11 -11   41.89    8.97
  -5  11  11   42.63    8.02
  -5 -11  11   39.81    8.43
   5  11  11   35.64    7.31
  -5  11 -11   43.13    8.40
  -5 -11  11   35.63    6.79
  -5 -11 -11   38.65    7.99
   5  11 -11   38.12    6.96
   5 -11  11   44.13    7.96
  -5  11  12   38.34    7.97
  -5 -11  12   37.97    8.22
  -5  11 -12   49.37    9.23
   5  11  12   30.86    6.60
  -5 -11  12   31.53    6.77
   5 -11 -12   45.23    8.83
   5 -11  12   35.69    7.49
   5 -11 -13    9.90    6.27
  -5  11  13    4.16    3.77
  -5 -11  13    5.55    4.70
  -5  11 -13   10.45    5.48
   5  11  13    0.76    2.93
  -5 -11  13    1.90    2.58
  -5  11 -14   -4.11    3.67
  -5 -11  14   -2.57    3.99
  -5  11  14   -3.06    3.15
   5  11  14    2.49    3.40
   5 -11 -14    5.34    5.88
  -5  11  15    7.05    4.16
   5  11  15   13.50    5.82
  -5  11  16   33.18    7.46
   5  11  16   27.49    6.99
  -5  11  17    6.08    4.25
  -5 -12   0    1.63    3.56
  -5  12   0    0.01    2.69
   5  12   0    1.22    3.00
  -5 -12   1   38.40    7.98
  -5 -12  -1   26.63    6.77
  -5  12  -1   28.53    6.88
  -5  12   1   27.54    6.62
   5  12  -1   29.73    6.13
   5  12   1   37.12    7.04
  -5 -12   2   21.59    6.26
  -5 -12  -2   24.87    6.66
  -5  12  -2   33.19    7.38
  -5  12   2   30.36    6.87
   5  12  -2   26.36    5.95
   5  12   2   26.44    6.03
   5  12  -3   -4.06    3.97
  -5 -12   3    6.08    4.47
  -5 -12  -3   -2.79    3.90
  -5  12  -3    6.76    4.29
  -5  12   3    3.38    3.38
  -5 -12   3    6.19    4.44
   5  12   3    5.42    3.60
   5  12   4    5.55    3.68
  -5 -12   4    9.34    5.17
  -5 -12  -4    7.12    4.78
  -5  12  -4    5.68    4.09
   5  12  -4    4.98    3.39
  -5  12   4    7.19    3.73
  -5 -12   4   12.31    4.76
  -5 -12   5   38.95    7.77
   5  12   5   32.32    6.98
  -5 -12   5   37.06    7.63
  -5 -12  -5   41.59    8.03
  -5  12  -5   33.80    7.57
   5  12  -5   27.71    5.89
  -5  12   5   37.64    7.34
  -5 -12   6   12.13    5.35
   5  12   6    8.82    4.52
  -5 -12   6   16.85    5.78
  -5 -12  -6    8.09    3.62
  -5  12  -6   11.71    5.11
   5  12  -6    6.10    3.61
  -5  12   6    8.98    4.29
  -5 -12   7   -1.70    3.97
   5  12   7   -0.66    2.49
  -5 -12   7   -3.24    4.56
  -5 -12  -7    2.57    3.75
  -5  12  -7   -1.56    3.87
   5  12  -7   -3.17    3.34
  -5  12   7   -3.26    3.23
   5 -12   7   -3.82    3.22
  -5 -12   8   24.86    6.27
   5  12   8   23.25    6.01
  -5 -12   8   35.32    7.93
  -5 -12  -8   36.64    7.79
  -5  12  -8   23.01    6.68
   5  12  -8   31.34    6.40
  -5  12   8   27.26    6.59
   5 -12   8   27.60    5.68
  -5 -12   9   -2.41    3.48
   5  12   9   -3.67    3.71
  -5 -12   9    7.46    5.36
  -5  12  -9   -3.07    3.77
  -5 -12  -9    3.78    4.21
   5  12  -9    3.14    3.39
  -5  12   9   -0.44    2.85
   5 -12   9   -2.18    2.99
  -5  12  10   19.40    5.67
  -5 -12  10   20.04    7.32
  -5 -12  10   13.86    5.08
   5  12  10   11.57    4.79
  -5  12 -10   16.67    5.62
  -5 -12 -10   18.77    5.97
   5 -12  10   20.48    5.99
  -5  12  11    1.63    3.32
   5  12  11    0.43    2.71
  -5 -12  11   -3.36    3.60
  -5  12 -11    0.78    4.15
  -5 -12 -11    2.38    3.90
   5 -12  11   -1.95    2.85
  -5  12  12   46.25    8.70
   5  12  12   49.69    8.90
  -5 -12  12   39.85    7.79
  -5 -12 -12   37.09    7.81
   5 -12  12   47.29    8.50
  -5  12  13   28.65    7.07
   5  12  13   36.68    7.85
  -5 -12 -13   34.40    7.57
  -5  12  14    3.88    3.83
   5  12  14    5.31    3.92
  -5 -12 -14    6.26    4.44
  -5 -12 -15    0.95    3.33
  -5  13   0   -4.55    3.60
   5  13   0   -1.97    2.59
  -5 -13   1   13.30    5.37
  -5 -13  -1   16.15    5.65
  -5  13   1   16.45    5.59
   5  13  -1   19.93    5.59
  -5  13  -1    8.24    4.22
   5  13   1   13.98    4.72
  -5 -13   2    3.18    3.52
  -5 -13  -2    2.27    3.54
  -5  13  -2    8.03    5.05
  -5  13   2   -0.67    3.70
   5  13  -2   13.18    4.88
   5  13   2    8.17    4.02
  -5 -13   3    2.46    4.01
  -5 -13  -3   10.39    4.63
  -5  13  -3   14.92    6.18
  -5 -13   3   15.13    5.72
  -5  13   3    3.72    3.61
   5  13  -3   13.31    4.59
   5  13   3    9.00    3.97
   5  13   4   13.11    5.06
  -5 -13   4   10.18    4.47
  -5 -13  -4    7.08    4.57
  -5  13  -4   18.11    6.20
   5  13  -4   12.48    4.81
  -5  13   4    6.82    3.65
  -5 -13   4   13.25    5.40
  -5 -13   5    4.64    4.44
   5  13   5   -5.16    4.21
  -5 -13   5    0.79    4.01
  -5 -13  -5    3.89    4.28
  -5  13  -5    2.69    3.46
   5  13  -5   -5.01    4.12
  -5  13   5    6.68    4.70
  -5 -13   6    2.56    4.22
   5  13   6    5.25    4.37
  -5 -13  -6    4.26    3.64
  -5  13  -6    7.07    4.37
   5  13  -6   -2.69    3.74
  -5  13   6   -0.25    2.80
  -5 -13   7    2.18    3.59
   5  13   7    2.39    3.36
  -5 -13  -7    1.19    3.41
  -5  13  -7    7.19    4.79
  -5  13   7    4.56    3.58
  -5 -13   8   11.44    4.71
   5  13   8   12.36    5.20
  -5 -13  -8   18.24    6.30
  -5  13   8   10.34    5.11
  -5 -13   9   38.48    8.13
   5  13   9   34.84    7.44
  -5 -13  -9   32.63    7.32
  -5  13   9   39.66    8.15
  -5 -13  10    5.54    4.23
   5  13  10    2.53    3.60
  -5 -13 -10    0.52    3.77
   5  13  11    0.96    2.88
  -5 -13 -11    2.83    3.34
   5 -13  11    0.97    2.98
  -5 -13 -12   13.52    5.25
   5 -13  12   19.51    6.10
   5  14   0    1.71    3.03
   5  14  -1   10.71    4.48
   5  14   1   14.07    4.97
   5  14  -2   14.14    4.96
   5  14   2   19.29    5.86
   5  14  -3    1.24    2.49
   5  14   3    1.48    2.43
   5  14   4    4.96    3.47
   5  14   5   34.79    7.50
   5  14   6    1.84    2.45
  -6   0   0 4635.77   57.87
  -6   0  -1    3.57    1.06
  -6   0  -1   10.58    5.06
  -6   0  -1   18.32    6.26
  -6   0   1    7.59    6.00
  -6   0  -2  192.51   10.66
  -6   0   2  164.57   10.96
  -6   0  -2  176.42    5.84
  -6   0  -3    4.40    1.94
  -6   0   3   -6.20    5.21
  -6   0  -4  904.92   16.37
   6   0  -4  896.28   25.82
  -6   0  -4  894.31   24.08
  -6   0   4  911.86   25.72
  -6   0  -4  946.77   26.16
  -6   0   5   11.39    4.67
  -6   0  -5    2.41    1.41
  -6   0  -5    5.53    4.26
   6   0  -5   14.67    6.07
  -6   0  -5    1.12    3.20
  -6   0   6  212.88   10.26
   6   0  -6  220.06   13.40
  -6   0  -6  219.42   13.56
  -6   0  -6  216.01   12.42
  -6   0   6  218.39   13.44
  -6   0   7   16.99    5.91
  -6   0   7    7.25    3.78
  -6   0  -7   27.08    7.22
   6   0  -7   17.19    6.26
  -6   0  -7   12.86    5.77
  -6   0   8 1578.99   27.42
   6   0  -8 1570.02   35.77
  -6   0  -8 1638.14   37.27
  -6   0  -8 1656.16   34.86
  -6   0   8 1657.70   36.30
  -6   0   9    1.82    3.91
  -6   0   9    0.43    2.05
   6   0  -9   -1.08    4.33
   6   0  -9    1.05    0.87
  -6   0  -9    6.47    4.81
  -6   0  10 1767.81   29.29
   6   0 -10 1735.94   20.62
   6   0 -10 1831.10   39.89
  -6   0 -10 1877.34   40.53
  -6   0 -10 1825.58   38.26
  -6   0  10 1815.17   39.79
  -6   0  11    6.90    4.61
  -6   0  11    9.07    3.08
  -6   0 -11   11.90    6.40
   6   0 -11    6.99    6.06
  -6   0 -11   23.68    6.73
   6   0 -12   35.42    6.66
  -6   0  12   36.62    4.60
  -6   0 -12   48.08    7.69
  -6   0 -12   41.47    7.81
  -6   0  13    5.55    3.14
   6   0 -13    5.75    5.05
  -6   0 -13   18.17    7.53
  -6   0 -13   16.63    6.56
  -6   0  14  758.45   20.23
   6   0 -14  812.70   28.87
  -6   0 -14  776.00   28.79
  -6   0 -14  730.32   27.23
  -6   0  15    6.61    3.27
  -6   0 -15    6.65    5.07
   6   0 -15   14.60    6.78
  -6   0 -15    6.85    5.65
  -6   0  16   12.47    3.10
   6   0 -16    9.05    4.78
  -6   0 -16    9.10    3.96
  -6   0 -16   11.87    4.91
  -6   0  17   -0.71    1.87
   6   0 -17    0.52    3.66
  -6   0 -17    2.17    3.66
  -6   0 -17    5.42    4.26
   6   0 -18   61.35    9.32
  -6   0 -18   58.79    8.91
  -6   0 -18   50.25    8.34
   6   0 -19    2.34    3.67
  -6   0 -19    3.55    3.65
  -6   0 -19    1.63    3.24
   6   0 -20    4.71    4.59
  -6   0 -20    3.52    4.33
  -6   0 -20    1.57    3.83
   6   0 -21    5.79    5.22
  -6   0 -21   -3.06    4.61
  -6   0 -21    4.57    4.78
   6   0 -22   97.81   12.21
  -6   0 -22   92.19   11.94
  -6   0 -22   92.79   11.68
   6   0 -23    0.51    3.32
  -6   0 -23    0.36    3.60
  -6   0 -23   -0.86    4.15
   6   0 -24   38.02    8.68
  -6   0 -24   39.87    8.44
  -6   0 -24   30.23    7.47
  -6   1   0   28.38    2.22
  -6   1   0   29.86    4.15
  -6   1   0   32.55    6.30
  -6  -1   0   42.33    6.54
  -6   1  -1   34.43    2.74
  -6  -1  -1   26.71    1.69
  -6   1   1   22.70    1.56
  -6   1  -1   29.31    4.26
  -6   1  -1   36.78    6.16
  -6  -1  -1   43.20    6.37
  -6   1   1   37.16    5.76
  -6  -1   1   32.90    5.25
  -6  -1  -2   -0.32    2.76
  -6   1  -2    1.27    2.21
  -6  -1  -2   -0.06    0.56
  -6   1   2   -3.53    4.10
  -6  -1  -3    2.57    0.93
  -6   1  -3    5.72    3.00
  -6  -1  -3    5.62    3.18
  -6   1  -3    4.04    2.82
  -6   1   3    1.66    3.53
   6   1  -4  315.35   15.31
  -6  -1  -4  291.83   14.04
  -6   1  -4  295.70   14.72
   6  -1  -4  286.42   15.18
  -6   1  -4  292.99   13.29
  -6  -1  -4  284.58    9.07
  -6   1   4  268.17   14.40
  -6  -1   4  287.87   14.46
  -6   1   5    5.00    3.46
  -6  -1   5    7.28    3.52
  -6  -1  -5    3.30    1.34
  -6  -1  -5    6.49    3.55
  -6   1  -5    4.09    4.00
   6   1  -5    8.46    5.42
  -6  -1  -5    4.43    3.17
   6  -1  -5    7.83    5.01
  -6   1  -5    3.91    2.74
  -6  -1   6  164.07    9.71
  -6   1   6  169.72    8.42
   6   1  -6  150.29   11.34
   6  -1  -6  177.56   12.50
  -6  -1  -6  177.35   12.25
  -6   1  -6  178.79   11.88
  -6  -1  -6  170.22   11.43
  -6   1  -6  177.30   10.85
  -6   1   6  178.47   12.14
  -6  -1   6  166.07   11.43
  -6  -1  -6  161.85    8.05
  -6  -1  -6  174.48   10.88
  -6  -1  -7   39.59    5.60
  -6   1   7   46.94    6.98
  -6  -1   7   39.27    6.06
  -6   1   7   43.54    4.43
  -6  -1   7   39.76    5.30
  -6  -1  -7   42.81    6.94
  -6   1  -7   56.08    8.03
   6   1  -7   44.89    7.13
   6  -1  -7   53.95    7.79
  -6  -1  -7   43.05    6.23
  -6   1  -7   47.69    6.14
  -6   1   8   13.25    4.40
  -6  -1   8   22.87    4.86
  -6   1   8   20.08    3.15
  -6  -1   8   19.03    3.72
   6  -1  -8   18.14    1.98
  -6  -1  -8   21.14    5.65
  -6   1  -8   19.77    5.31
  -6  -1  -8   19.59    4.13
   6   1  -8   12.85    4.27
   6  -1  -8   18.86    5.39
  -6  -1  -8   14.37    4.26
  -6   1  -8   25.56    5.12
  -6   1   9   15.17    4.50
  -6  -1   9   11.10    3.69
  -6   1   9   17.68    2.88
  -6  -1   9   13.79    3.21
  -6  -1  -9   15.45    5.20
   6   1  -9   15.55    1.68
   6  -1  -9   13.05    1.90
  -6  -1  -9   18.32    4.03
  -6   1  -9   16.95    5.06
   6   1  -9   13.65    4.34
   6  -1  -9   15.70    4.53
  -6  -1  -9   10.60    3.85
  -6   1  -9   22.34    5.38
  -6   1  10   -2.22    3.43
  -6  -1  10   -2.67    3.12
  -6   1  10   -1.69    1.54
  -6  -1  10    0.51    2.10
  -6  -1 -10   -0.41    2.59
  -6  -1 -10   -0.63    4.05
   6  -1 -10   -0.28    1.03
  -6   1 -10    2.71    4.05
   6   1 -10   -6.64    5.02
   6  -1 -10   -0.13    3.54
  -6  -1 -10   -4.89    4.49
  -6   1 -10    3.51    3.56
   6   1 -10   -0.84    0.98
  -6   1  11    0.17    3.37
  -6  -1  11   -0.26    3.17
  -6   1  11    4.45    2.00
  -6  -1  11    0.28    2.04
  -6   1 -11    5.28    4.57
  -6  -1 -11    2.56    2.42
  -6  -1 -11    6.46    4.16
   6   1 -11   -6.13    5.16
   6  -1 -11    0.05    4.00
  -6  -1 -11    1.47    3.86
  -6   1 -11    5.01    3.70
  -6   1  12   39.59    4.28
  -6  -1  12   40.56    5.34
  -6  -1 -12   46.28    5.71
  -6  -1 -12   46.68    7.62
  -6   1 -12   44.07    7.85
   6  -1 -12   34.01    6.24
  -6  -1 -12   45.66    7.50
   6   1 -12   36.78    6.02
  -6   1 -12   52.28    7.72
  -6   1  13  382.71   12.73
  -6  -1  13  376.27   15.21
   6   1 -13  401.12   20.30
   6  -1 -13  393.93   20.00
  -6  -1 -13  372.24   19.76
  -6   1 -13  359.43   19.57
  -6  -1 -13  385.06   19.74
  -6   1 -13  387.83   19.18
  -6  -1 -13  360.45   15.25
  -6   1  14  306.16   11.70
  -6  -1  14  300.41   13.91
   6   1 -14  337.77   18.83
   6  -1 -14  303.11   18.13
  -6  -1 -14  297.68   18.18
  -6   1 -14  296.81   18.30
  -6  -1 -14  325.90   18.42
  -6   1 -14  317.81   17.89
  -6  -1 -14  308.16   14.07
  -6   1  15   90.59    6.49
  -6  -1  15   82.11    7.46
   6   1 -15  100.58   11.20
   6  -1 -15  116.05   12.10
  -6  -1 -15   96.89   10.82
  -6   1 -15   81.42    9.70
  -6  -1 -15   99.53   10.92
  -6   1 -15   93.65   10.10
  -6  -1 -15   93.34    7.76
  -6  -1  16    4.19    2.66
  -6  -1 -16    2.28    1.65
  -6  -1 -16    3.52    3.15
   6   1 -16    6.69    4.06
   6  -1 -16    7.28    5.03
  -6   1 -16   -4.16    5.34
  -6  -1 -16    5.67    4.08
  -6   1 -16   -0.11    2.99
  -6  -1  17   33.44    5.12
  -6  -1 -17   33.67    7.55
   6   1 -17   29.92    6.73
  -6   1 -17   19.77    5.52
   6  -1 -17   35.64    7.28
  -6  -1 -17   39.38    7.98
  -6   1 -17   24.78    6.10
  -6  -1  18    8.21    2.76
   6   1 -18   14.06    5.91
  -6  -1 -18    8.25    5.60
   6  -1 -18   13.77    5.91
  -6   1 -18    8.94    4.28
  -6  -1 -18   12.76    5.83
  -6   1 -18    8.58    5.30
  -6   1 -19  126.82   12.96
   6   1 -19  143.59   14.03
   6  -1 -19  135.16   13.29
  -6  -1 -19  119.41   12.80
  -6   1 -19  126.80   12.99
  -6  -1 -19  136.52   13.66
   6   1 -20    3.92    4.27
   6  -1 -20    7.93    5.42
  -6   1 -20   -4.20    4.45
  -6  -1 -20   -1.62    3.83
  -6  -1 -20    2.48    4.38
  -6   1 -20   -1.36    3.69
   6   1 -21   94.35   12.15
   6  -1 -21   86.52   11.40
  -6  -1 -21  101.76   12.15
  -6   1 -21   90.53   11.59
  -6  -1 -21   85.95   11.15
  -6   1 -21   83.61   11.15
   6   1 -22    3.97    4.06
  -6  -1 -22   -4.27    4.40
  -6   1 -22   -0.45    4.45
   6  -1 -22    0.72    4.03
  -6  -1 -22   -6.19    4.64
  -6   1 -22   -0.75    3.64
   6   1 -23   -2.20    3.26
  -6  -1 -23   -3.81    4.92
  -6   1 -23   -3.68    5.24
   6  -1 -23   -2.44    3.41
  -6  -1 -23   -0.99    4.99
  -6   1 -23    3.46    4.55
   6   1 -24    6.46    4.77
   6  -1 -24    2.92    3.40
  -6  -1 -24    2.28    4.08
  -6   1 -24    6.42    5.31
  -6  -1 -24   -1.18    5.07
  -6   1 -24   -2.81    4.15
  -6  -1 -25    4.21    4.44
  -6   2   0  230.45    7.64
  -6   2   0  232.84   10.06
  -6   2   0  233.52   13.67
  -6  -2   0  234.44   12.59
  -6   2  -1  169.90    7.01
  -6  -2  -1  160.34    4.77
  -6   2   1  170.83    6.24
  -6   2  -1  184.50    9.19
   6  -2  -1  171.35    8.29
  -6   2  -1  171.14   11.87
  -6  -2  -1  171.44   11.07
  -6   2   1  171.62   11.71
  -6  -2   1  171.99   10.70
  -6  -2  -1  174.50   11.53
  -6  -2  -2   15.53    4.14
  -6   2  -2   12.84    3.81
  -6  -2  -2   12.88    1.77
  -6   2  -2   13.15    3.09
  -6  -2  -2    9.75    3.59
  -6  -2  -2   13.24    4.66
  -6   2   2    8.45    1.35
   6  -2  -2   11.81    2.35
  -6   2   2    4.37    4.00
  -6  -2   2    8.15    3.69
  -6  -2  -3  465.75   10.99
   6   2  -3  518.09   18.85
  -6   2   3  468.96    9.59
  -6  -2  -3  491.88   18.65
   6  -2  -3  476.82   13.38
  -6   2  -3  473.47   15.73
  -6   2   3  491.90   19.32
  -6  -2   3  475.83   18.19
  -6  -2  -3  485.73   18.89
  -6   2  -3  503.87   18.40
  -6  -2  -4  818.24   15.89
   6   2  -4  847.49   24.57
  -6  -2  -4  843.12   24.97
  -6   2  -4  859.55   21.63
   6  -2  -4  807.47   17.21
  -6   2  -4  853.61   24.54
  -6   2   4  790.28   12.48
  -6   2   4  812.11   25.31
  -6  -2   4  822.14   24.23
  -6  -2  -4  842.21   24.51
  -6  -2   5   71.02    7.00
   6   2  -5   80.96    8.34
  -6   2  -5   63.67    6.25
   6  -2  -5   81.00    9.58
  -6   2  -5   72.03    8.09
  -6  -2  -5   80.59    5.42
  -6  -2  -5   71.91    8.17
   6  -2  -5   60.90    4.79
  -6   2   5   68.32    8.35
  -6  -2   5   66.44    7.49
  -6  -2  -5   74.80    7.75
  -6   2   5   60.10    3.59
   6  -2  -6  412.05   18.69
  -6  -2   6  397.54   15.96
   6  -2  -6  391.63   12.08
   6   2  -6  428.79   17.85
  -6   2  -6  453.88   18.58
  -6  -2  -6  411.43   17.93
  -6   2  -6  395.60   15.57
  -6   2   6  427.35   18.64
  -6  -2   6  404.72   17.27
  -6  -2  -6  407.74   17.14
  -6   2   6  389.32    9.43
  -6   2   7  661.23   13.02
   6  -2  -7  661.78   12.71
  -6  -2   7  686.09   20.57
  -6   2   7  679.64   14.83
  -6  -2  -7  702.21   22.34
   6   2  -7  700.10   23.04
   6  -2  -7  680.66   23.91
  -6  -2  -7  664.03   23.88
  -6   2  -7  682.48   23.41
  -6  -2  -7  700.23   23.84
   6  -2  -7  627.09   15.53
  -6   2  -7  671.36   21.28
   6  -2   7  668.49   12.56
  -6   2   7  684.68   24.03
  -6  -2   7  676.46   22.63
   6  -2   8   50.23    3.01
  -6   2   8   59.73    7.43
  -6  -2   8   49.68    6.62
  -6   2   8   54.83    4.09
   6   2  -8   48.65    2.43
   6  -2  -8   54.53    4.00
  -6   2   8   55.36    4.34
  -6  -2   8   57.17    6.27
   6  -2  -8   53.20    4.66
  -6  -2  -8   67.73    8.59
  -6   2  -8   58.35    7.86
   6   2  -8   49.01    2.42
   6   2  -8   44.90    6.35
   6  -2  -8   71.68    8.75
  -6   2  -8   68.17    7.59
  -6  -2  -8   62.47    8.23
  -6  -2  -8   68.32    7.49
  -6   2   9   -4.48    4.25
  -6  -2   9   -3.68    4.04
   6   2  -9   -0.57    4.74
   6   2  -9    1.74    0.75
  -6   2   9    3.86    1.65
  -6  -2   9    0.00    2.65
  -6  -2  -9    3.40    2.96
   6  -2  -9    4.45    1.64
  -6  -2  -9    1.47    3.81
  -6   2  -9    4.96    3.66
   6  -2  -9    1.03    1.20
  -6  -2  -9    5.49    4.00
  -6   2  -9   12.40    4.45
   6  -2  -9   -3.18    3.99
  -6   2  10  108.28    5.78
  -6  -2  10  108.74    8.76
   6  -2 -10   99.93    6.08
   6   2 -10  111.70   10.14
   6  -2 -10  109.67   10.57
  -6  -2 -10  110.26   10.85
  -6   2 -10  141.00   11.95
  -6  -2 -10  117.54   11.05
  -6   2 -10  112.43   10.25
  -6  -2 -10  116.45    9.55
  -6   2  10  108.26   10.32
  -6  -2  10  111.48    9.88
  -6   2  11  745.90   14.88
  -6  -2  11  717.80   21.92
   6   2 -11  737.30   25.82
   6  -2 -11  732.81   26.19
  -6  -2 -11  745.60   26.47
  -6   2 -11  712.17   26.30
  -6  -2 -11  766.30   26.78
  -6   2 -11  750.46   24.68
  -6  -2 -11  755.79   23.07
  -6   2  11  721.84   26.31
  -6   2  12   73.46    4.81
  -6  -2  12   73.05    7.33
  -6   2  12   76.39    9.01
   6  -2 -12   63.09    8.30
   6   2 -12   92.38    9.90
  -6  -2 -12   81.93    9.87
  -6   2 -12   81.92    9.78
  -6   2 -12   79.65    9.32
  -6  -2 -12   67.22    9.01
  -6  -2 -12   79.90    7.96
  -6  -2  13  426.27   17.32
   6   2 -13  453.60   21.22
   6  -2 -13  445.38   21.18
  -6  -2 -13  453.71   21.51
  -6   2 -13  460.68   21.72
  -6  -2 -13  448.56   21.18
  -6   2 -13  437.10   20.35
  -6  -2 -13  435.37   17.83
  -6  -2  14   20.55    4.26
  -6  -2 -14   25.09    4.69
  -6  -2 -14   26.01    6.54
   6   2 -14   36.91    7.38
  -6   2 -14   26.02    6.53
   6  -2 -14   14.94    4.29
  -6  -2 -14   38.64    7.64
  -6   2 -14   31.75    6.61
  -6   2 -15    0.54    3.75
  -6  -2  15    1.96    2.26
  -6  -2 -15    5.82    2.86
  -6  -2 -15   10.08    4.41
   6   2 -15    9.89    4.52
   6  -2 -15   -2.23    4.74
  -6  -2 -15    1.00    3.94
  -6   2 -15    0.83    3.18
  -6  -2 -16   49.63    8.31
  -6  -2  16   36.65    5.80
  -6  -2 -16   40.68    5.81
   6   2 -16   42.00    7.75
  -6   2 -16   36.35    6.96
   6  -2 -16   43.51    7.68
  -6  -2 -16   49.39    8.47
  -6   2 -16   32.85    6.63
  -6  -2  17   59.87    7.22
  -6  -2 -17   59.87    9.22
  -6   2 -17   53.28    8.60
   6  -2 -17   69.55   10.03
  -6  -2 -17   59.62    9.00
  -6  -2 -17   56.93    6.59
  -6   2 -17   51.48    8.07
   6   2 -17   67.23    9.43
  -6  -2  18   75.69    8.07
   6   2 -18   62.67    9.60
  -6  -2 -18   72.87   10.16
  -6   2 -18   59.20    9.47
  -6  -2 -18   72.84   10.08
  -6   2 -18   69.94    9.80
   6  -2 -18   84.79   10.87
  -6  -2  19   53.67    7.22
  -6   2 -19   53.52    9.15
  -6  -2 -19   57.62    9.30
   6  -2 -19   56.20    9.02
   6   2 -19   55.03    8.89
  -6  -2 -19   63.30    9.78
  -6   2 -19   49.31    8.38
  -6  -2  20   -4.86    2.86
   6   2 -20   10.10    5.48
  -6  -2 -20    8.46    5.31
   6  -2 -20    6.54    4.03
  -6   2 -20   -1.70    3.71
  -6  -2 -20    3.99    4.24
  -6   2 -20   -3.85    4.12
  -6  -2 -21   70.70   10.32
   6  -2 -21   71.72   10.36
  -6   2 -21   59.01    9.88
   6   2 -21   74.20   10.19
  -6  -2 -21   72.85   10.72
  -6   2 -21   75.96   10.82
  -6  -2 -22   21.29    6.43
   6   2 -22   29.38    7.38
  -6   2 -22   29.66    6.89
   6  -2 -22   23.79    6.58
  -6  -2 -22   22.14    7.24
  -6   2 -22   24.80    6.18
  -6   2 -23   -4.94    5.85
   6   2 -23   -1.48    4.00
  -6  -2 -23   -1.07    4.28
   6  -2 -23    1.43    3.58
  -6  -2 -23    2.82    4.42
  -6   2 -23   -2.37    3.46
   6   2 -24    4.56    3.86
   6  -2 -24    7.71    5.38
  -6   2 -24    3.95    4.76
  -6  -2 -24    8.67    5.62
  -6  -2 -24    4.92    5.27
  -6   2 -24    4.80    3.91
  -6  -2 -25   48.71    9.24
  -6   3   0    3.77    1.88
  -6  -3   0   -1.86    2.83
  -6   3   0    0.61    1.53
   6  -3   0   -0.04    1.24
  -6   3   0    1.52    2.76
  -6  -3   0   -1.74    2.78
  -6  -3  -1   30.46    2.65
  -6   3   1   26.40    3.20
  -6   3  -1   29.22    3.56
  -6  -3  -1   26.14    4.82
  -6   3  -1   25.63    3.47
  -6  -3   1   23.91    4.74
   6  -3  -1   29.45    3.33
   6  -3   1   29.07    3.45
  -6   3  -1   30.22    5.74
  -6  -3  -1   33.99    5.43
  -6   3   1   33.79    5.32
  -6  -3   1   20.64    4.17
  -6   3  -2   12.17    2.83
  -6  -3  -2    6.16    3.06
  -6  -3  -2    9.91    1.77
  -6   3  -2   11.26    3.42
  -6  -3   2   11.20    3.17
  -6   3   2    7.53    1.65
  -6   3  -2    9.72    2.66
  -6   3  -2   14.23    5.01
   6  -3  -2    6.82    1.34
  -6  -3  -2   12.01    4.19
  -6   3   2    0.02    4.22
  -6  -3   2    6.23    2.56
  -6  -3  -3   -1.63    2.98
  -6   3  -3    0.42    2.99
  -6  -3  -3    1.24    1.02
  -6   3  -3   -0.67    1.96
  -6  -3  -3   -0.50    3.23
  -6   3   3    0.63    1.21
   6  -3  -3   -1.91    1.49
  -6   3   3    1.51    2.89
  -6  -3   3   -0.69    2.91
  -6  -3   4  587.31   19.99
  -6  -3  -4  541.04   13.89
   6   3  -4  573.43   20.09
  -6   3  -4  547.57   19.49
  -6   3  -4  555.94   16.85
  -6  -3  -4  590.23   21.54
   6  -3  -4  556.17   12.57
  -6   3   4  574.77   21.45
  -6  -3   4  548.89   19.38
  -6  -3  -4  537.99   20.52
  -6   3   4  544.72   13.11
  -6  -3   5   48.85    6.32
  -6  -3   5   59.39    6.98
  -6  -3  -5   54.86    7.04
   6   3  -5   58.14    7.67
  -6   3  -5   67.64    7.39
  -6   3   5   53.35    4.16
  -6   3  -5   50.20    5.83
  -6  -3  -5   56.82    7.66
   6  -3  -5   54.41    3.91
   6  -3   5   48.74    4.45
  -6   3   5   61.82    7.81
  -6   3   6    9.38    4.72
  -6  -3   6    5.55    3.11
  -6   3   6    3.67    1.54
  -6  -3  -6   -0.77    2.93
  -6  -3   6    2.01    3.13
   6   3  -6    2.43    0.63
  -6   3  -6    3.68    3.38
   6   3  -6    1.79    3.36
  -6  -3  -6    5.23    4.06
   6  -3  -6   14.09    5.59
   6  -3  -6    3.98    1.44
   6   3  -6    2.24    0.64
  -6   3  -6    4.43    3.15
   6  -3   6    3.14    1.78
   6  -3   7  174.74    6.87
   6   3  -7  160.87    4.86
   6  -3  -7  174.46    7.80
  -6  -3   7  175.08   11.26
  -6   3   7  176.96    6.63
   6   3  -7  160.32    4.84
   6  -3  -7  196.85   13.09
   6   3  -7  164.55   11.55
  -6   3  -7  199.05   12.63
  -6  -3  -7  187.48   12.73
   6  -3  -7  171.93    6.95
  -6   3  -7  162.84   10.65
  -6  -3  -7  171.63   11.62
  -6   3   7  176.31   12.62
  -6  -3   7  172.55   11.19
  -6   3   7  176.37    7.97
   6   3  -8  122.89    4.84
  -6   3   8  127.64    5.33
   6  -3  -8  123.38    6.85
   6   3  -8  123.72    4.86
  -6  -3   8  126.66    9.67
   6   3  -8  120.01    9.89
   6  -3  -8  149.87   11.95
  -6  -3  -8  128.72   10.82
  -6   3  -8  140.09   11.23
  -6  -3  -8  128.07   10.88
  -6   3  -8  123.61    9.31
  -6  -3  -8  130.89   10.36
  -6   3   8  128.98   10.70
  -6  -3   8  136.42   10.23
  -6   3   8  132.06    7.15
  -6   3   9   -2.46    4.15
  -6  -3   9   -2.79    3.56
  -6  -3  -9   10.53    4.32
  -6   3   9    1.05    0.96
   6   3  -9    2.70    1.39
  -6  -3   9    0.98    2.69
  -6   3   9   -0.54    1.32
  -6  -3  -9   -6.51    4.67
   6   3  -9   -2.29    4.03
   6  -3  -9   -0.53    4.26
  -6   3  -9    2.23    3.74
  -6  -3  -9    1.24    4.19
  -6   3  -9    5.87    3.64
  -6   3  10  114.23    4.49
  -6   3  10  117.96    7.37
  -6  -3  10  118.66    9.49
   6   3 -10  118.26   10.00
   6  -3 -10  112.52   10.93
  -6  -3 -10  111.13   10.51
  -6   3 -10  122.62   11.05
  -6  -3 -10  117.38   10.96
  -6   3 -10  124.35   10.05
  -6  -3 -10  122.23   10.23
  -6   3  10  119.76   10.88
  -6   3  11   -2.52    4.00
  -6  -3 -11    7.60    4.10
  -6  -3  11    2.78    2.87
  -6   3  11   -0.03    1.83
  -6  -3 -11    0.18    3.77
  -6   3 -11    0.28    3.59
   6   3 -11   -4.28    4.71
   6  -3 -11   -1.28    4.16
  -6  -3 -11   -2.03    4.33
  -6   3 -11   -3.12    2.62
  -6  -3  12  188.05   12.29
   6   3 -12  208.93   14.33
   6  -3 -12  206.48   14.59
  -6  -3 -12  193.21   13.93
  -6   3 -12  216.66   14.82
  -6  -3 -12  200.85   14.52
  -6   3 -12  201.17   13.42
  -6  -3 -12  201.55   12.69
  -6   3  12  196.37   14.03
  -6  -3 -13   18.73    4.49
  -6  -3  13   15.31    4.01
  -6  -3 -13   21.18    5.71
   6   3 -13   27.70    6.63
  -6   3 -13   14.93    5.59
   6  -3 -13    7.62    4.12
  -6  -3 -13   30.13    7.05
  -6   3 -13   13.69    4.68
  -6  -3 -14   25.44    4.67
  -6  -3  14   23.36    4.63
  -6  -3 -14   27.63    6.55
  -6   3 -14   24.29    5.73
   6  -3 -14   22.63    5.33
  -6  -3 -14   23.71    5.97
  -6   3 -14   22.52    5.21
   6   3 -14   34.34    6.58
  -6  -3 -15   16.40    4.42
  -6  -3  15   19.61    4.69
  -6  -3 -15   13.66    4.94
   6   3 -15   17.83    5.28
  -6   3 -15   17.49    5.68
   6  -3 -15    9.16    4.59
  -6  -3 -15   22.30    6.04
  -6   3 -15   11.71    4.95
  -6  -3  16  200.06   13.19
   6   3 -16  207.14   15.58
   6  -3 -16  212.50   15.85
  -6  -3 -16  194.57   15.41
  -6   3 -16  208.11   16.03
  -6  -3 -16  195.43   15.59
  -6  -3 -16  197.95   12.96
  -6   3 -16  198.06   15.07
  -6  -3 -17   18.02    4.72
  -6  -3  17    8.94    3.72
  -6   3 -17   11.97    5.24
  -6  -3 -17   13.45    5.68
   6   3 -17   14.77    5.42
   6  -3 -17    3.20    4.17
  -6  -3 -17   13.49    5.57
  -6   3 -17   14.31    5.04
  -6  -3  18  127.08   11.08
   6   3 -18  108.81   11.86
   6  -3 -18  149.03   14.03
  -6  -3 -18  133.42   13.02
  -6   3 -18  127.18   13.26
  -6  -3 -18  121.48   12.61
  -6   3 -18  125.39   12.47
  -6  -3  19   75.68    8.72
   6  -3 -19   91.55   11.68
  -6  -3 -19   69.94    9.90
   6   3 -19   77.57   10.38
  -6   3 -19   82.24   11.22
  -6  -3 -19   63.73    9.52
  -6   3 -19   75.56   10.08
  -6  -3  20   13.96    4.42
   6   3 -20   10.29    5.01
  -6  -3 -20   15.40    5.78
   6  -3 -20   20.50    6.15
  -6   3 -20    7.18    4.38
  -6  -3 -20   11.76    5.19
  -6   3 -20   15.43    5.53
  -6  -3  21    2.55    3.01
   6   3 -21    5.14    4.13
  -6  -3 -21    5.40    4.55
  -6   3 -21   -3.25    5.10
  -6  -3 -21    4.02    3.52
  -6   3 -21   -0.50    4.95
  -6  -3  22   33.59    6.27
   6   3 -22   47.33    8.75
  -6  -3 -22   31.33    7.18
   6  -3 -22   38.33    8.15
  -6   3 -22   37.46    8.04
  -6  -3 -22   36.42    8.27
  -6   3 -22   36.64    7.64
   6   3 -23   15.24    5.57
  -6  -3 -23   16.22    6.16
   6  -3 -23   20.33    6.71
  -6   3 -23    4.61    3.58
  -6  -3 -23   16.44    6.35
  -6   3 -23   14.86    5.76
  -6  -3 -24   21.54    6.76
   6  -3 -24   17.00    6.22
  -6   3 -24    7.14    4.24
  -6  -3 -25    1.11    3.73
  -6   4   0  101.88    6.92
  -6   4   0   96.12    5.60
  -6   4   0   96.49    9.30
  -6  -4   0   96.87    7.84
  -6  -4   0   99.60    9.31
   6  -4   0   94.47    5.40
   6   4   0   96.96    5.10
  -6  -4  -1  125.63    6.18
  -6   4  -1  117.33    7.47
  -6   4   1  120.13    7.31
  -6   4  -1  116.46    8.74
  -6   4  -1  120.83    6.77
  -6   4  -1  136.91   10.68
  -6  -4  -1  123.29    9.04
  -6   4   1  110.40    9.58
  -6  -4   1  117.19    8.69
  -6  -4  -1  119.73   10.15
   6  -4  -1  121.77    5.75
  -6  -4   1  110.97    9.81
   6   4  -1  122.32    5.45
   6  -4   1  118.39    6.48
   6   4   1  121.46    6.08
  -6   4   2    4.64    1.64
   6   4  -2    4.51    1.15
  -6  -4  -2    6.00    3.37
  -6   4  -2    6.95    2.45
  -6  -4  -2    3.56    1.49
   6   4   2    5.98    1.65
  -6  -4   2    1.64    3.74
  -6   4  -2    3.51    2.40
  -6   4   2    4.54    1.73
  -6   4  -2    5.43    1.94
   6  -4   2   -1.33    2.52
  -6   4  -2    7.78    4.46
  -6  -4  -2    8.19    3.55
   6  -4  -2    4.08    1.11
   6  -4   2    4.95    1.73
  -6   4   2   -1.45    3.99
  -6  -4   2   -4.95    3.55
   6   4   3  104.41    6.32
  -6   4  -3   95.34    7.24
  -6  -4  -3   90.59    5.84
  -6   4   3  101.38    6.55
  -6  -4   3  105.81    9.37
  -6   4  -3   94.50    8.17
   6   4  -3  104.77    9.06
  -6   4  -3   99.26    6.78
  -6   4   3   85.24    8.23
  -6  -4  -3  103.57    9.52
   6   4  -3   99.33    4.57
  -6  -4   3  101.29    8.14
   6  -4   3  102.57    7.22
   6  -4  -3   98.03    4.55
  -6  -4   3   89.50    8.91
  -6   4   3  105.11    5.96
  -6  -4   4   23.01    4.30
  -6  -4  -4   22.06    5.07
  -6  -4   4   14.45    3.98
   6   4  -4   25.76    5.52
   6   4  -4   23.39    2.27
   6   4   4   21.30    3.23
  -6   4  -4   20.22    4.18
  -6  -4   4   18.82    4.50
  -6  -4  -4   25.09    5.71
  -6   4  -4   21.44    3.62
   6  -4  -4   21.66    2.04
  -6   4   4   23.69    3.38
  -6   4   4   23.60    2.71
   6  -4   4   24.03    3.67
  -6   4   4   13.20    3.65
  -6   4   5   15.84    2.03
  -6   4   5   17.10    4.62
  -6  -4   5   13.93    3.61
  -6  -4  -5   14.56    4.34
  -6  -4   5   16.49    4.15
   6   4  -5   19.31    2.12
   6  -4   5   13.21    2.78
   6   4   5   15.41    2.93
  -6   4  -5   13.08    3.60
  -6  -4   5   14.88    3.66
  -6  -4  -5   10.13    4.39
   6   4  -5   27.33    5.43
  -6   4  -5   14.91    3.33
  -6   4   5   14.45    2.66
  -6   4   6    6.78    2.11
  -6   4   6   11.69    4.44
  -6  -4   6   10.58    3.39
  -6  -4  -6    6.21    3.45
  -6  -4   6    9.02    3.79
   6  -4   6    9.13    2.51
  -6   4  -6   10.78    4.09
   6   4  -6    7.67    1.46
  -6  -4  -6    6.56    4.32
   6   4  -6   13.04    4.37
  -6   4  -6   12.20    3.72
  -6   4   7  244.26    6.07
  -6  -4   7  268.37   14.59
   6   4  -7  252.62    7.92
   6   4  -7  254.17   14.25
   6  -4  -7  267.62   15.96
  -6   4  -7  276.06   14.88
  -6   4  -7  260.17   12.82
  -6   4   7  252.97   10.87
  -6  -4  -7  252.07   14.64
  -6   4   7  270.93   15.59
  -6  -4   7  256.10   13.75
  -6  -4  -7  265.45   15.85
  -6  -4  -8  611.62   22.41
  -6  -4   8  586.74   21.82
   6   4  -8  594.37   12.87
   6   4  -8  607.05   21.67
  -6   4  -8  614.78   22.54
  -6  -4  -8  622.67   24.31
  -6   4  -8  614.02   20.19
  -6   4   8  598.81   16.94
  -6   4   8  577.82   23.01
  -6  -4   8  571.18   20.95
   6  -4  -8  673.40   24.33
  -6  -4   9  119.69    9.85
   6   4  -9  125.55    6.41
   6   4  -9  129.89   10.37
   6  -4  -9  138.28   11.98
  -6   4  -9  139.14   11.37
  -6  -4  -9  139.22   12.26
  -6  -4  -9  132.17   10.64
  -6   4  -9  141.51   10.23
  -6   4   9  137.06   11.58
  -6  -4   9  126.48    9.95
  -6   4   9  130.66    8.16
  -6  -4  10  232.11   14.10
   6   4 -10  229.72    9.08
   6   4 -10  227.86   13.85
   6  -4 -10  245.45   15.40
  -6   4 -10  230.95   14.95
  -6  -4 -10  252.00   16.29
  -6  -4 -10  225.17   14.12
  -6   4 -10  236.10   13.72
  -6   4  10  225.57   14.93
  -6  -4 -10  240.25   15.19
  -6   4  10  229.32   11.18
  -6  -4 -11   14.02    4.52
  -6   4  11    9.46    3.43
  -6  -4  11   14.50    4.41
  -6   4  11   11.94    2.84
  -6  -4 -11   12.15    4.82
   6   4 -11   -4.45    4.71
   6  -4 -11   10.71    4.73
  -6  -4 -11   22.55    6.36
  -6   4 -11    7.62    4.11
  -6   4 -11   13.22    4.31
  -6  -4 -12   18.47    4.67
  -6  -4  12   18.82    4.72
  -6   4  12   20.25    3.79
  -6  -4 -12   18.83    5.73
   6   4 -12   27.18    6.02
   6  -4 -12   20.10    5.13
  -6  -4 -12   12.86    4.20
  -6   4 -12   19.67    5.44
  -6   4 -12   20.82    4.62
  -6  -4 -13   26.42    5.19
  -6  -4  13   24.09    5.06
  -6   4  13   32.99    4.92
  -6  -4 -13   25.69    5.86
   6   4 -13   27.69    5.63
  -6   4 -13   34.38    6.45
   6  -4 -13   21.48    5.16
  -6  -4 -13   26.12    6.45
  -6   4 -13   23.11    4.91
  -6  -4 -14   40.56    6.41
  -6  -4  14   36.72    6.33
  -6  -4 -14   42.40    7.07
  -6   4  14   35.36    5.11
   6   4 -14   34.80    6.72
  -6   4 -14   38.26    7.44
   6  -4 -14   37.03    7.37
  -6  -4 -14   30.92    6.28
  -6   4 -14   30.82    5.80
  -6  -4  15  158.44   12.29
   6   4 -15  165.93   13.49
   6  -4 -15  142.31   12.69
  -6  -4 -15  149.33   13.14
  -6   4 -15  147.37   13.26
  -6  -4 -15  150.01   13.69
  -6  -4 -15  147.81   11.62
  -6   4 -15  146.08   12.56
  -6  -4 -16   49.54    7.11
  -6  -4  16   34.54    6.12
  -6  -4 -16   39.66    7.31
   6   4 -16   45.77    7.93
  -6   4 -16   49.98    8.66
   6  -4 -16   33.16    6.92
  -6  -4 -16   37.68    7.35
  -6   4 -16   49.94    8.04
  -6  -4  17   68.81    8.50
  -6  -4 -17   60.27    9.01
   6   4 -17   71.51    9.46
  -6   4 -17   52.82    8.86
   6  -4 -17   56.70    8.69
  -6  -4 -17   66.31    8.09
  -6  -4 -17   55.96    9.04
  -6   4 -17   58.22    8.62
  -6  -4  18  104.29   10.48
   6   4 -18   85.93   10.81
   6  -4 -18   98.27   11.27
  -6  -4 -18   95.74   11.22
  -6   4 -18   86.14   11.29
  -6  -4 -18  104.99   10.12
  -6  -4 -18   91.23   11.39
  -6   4 -18   97.57   11.31
  -6  -4  19   26.59    6.05
   6  -4 -19   13.44    4.60
  -6  -4 -19   19.06    6.15
   6   4 -19   24.94    6.68
  -6   4 -19   15.23    5.69
  -6  -4 -19   26.44    7.22
  -6   4 -19   13.33    5.22
  -6  -4 -20    2.81    4.08
  -6  -4  20    0.65    2.37
   6   4 -20    0.75    3.62
   6  -4 -20   -5.09    5.34
  -6   4 -20    0.08    4.11
  -6  -4 -20   -0.81    3.30
  -6   4 -20    2.64    3.41
  -6  -4  21   23.65    5.68
  -6  -4 -21   27.67    7.05
   6   4 -21   20.85    5.95
   6  -4 -21   34.04    7.62
  -6   4 -21   20.01    6.50
  -6  -4 -21   35.16    8.41
  -6   4 -21   15.09    5.42
  -6  -4  22   43.54    7.49
   6   4 -22   45.37    8.75
  -6  -4 -22   42.41    8.27
   6  -4 -22   47.89    8.94
  -6   4 -22   51.37    9.66
  -6  -4 -22   51.39    9.75
  -6   4 -22   45.15    8.78
  -6  -4  23   27.26    6.10
  -6  -4 -23   24.29    7.16
   6  -4 -23   38.17    8.53
   6   4 -23   25.66    7.24
  -6  -4 -23   30.62    8.33
  -6   4 -23   25.44    6.80
  -6   4 -23   26.54    7.65
  -6  -4 -24    8.13    4.98
   6  -4 -24    5.50    4.85
  -6  -4 -25   25.41    7.34
   6   5   0    7.47    2.07
  -6  -5   0   15.11    4.83
  -6   5   0   11.10    3.34
   6  -5   0   -0.88    3.20
  -6   5   0    7.81    1.76
  -6   5   0    7.09    4.04
  -6  -5   0    4.78    2.72
  -6  -5  -1  192.76    8.67
  -6   5  -1  204.32   10.85
  -6   5   1  196.95   10.48
  -6   5  -1  196.06   10.94
  -6   5  -1  199.37    8.13
   6   5  -1  199.40    8.36
  -6   5  -1  206.43   13.35
  -6  -5  -1  190.44   11.01
  -6   5   1  189.09   12.77
   6  -5  -1  179.80   11.26
  -6  -5  -1  201.11   13.47
  -6  -5   1  174.39   10.30
  -6  -5   1  202.46   13.34
   6   5   1  200.71    9.01
   6  -5   1  199.50   11.22
  -6  -5   2   34.70    4.62
   6  -5   2   34.03    4.82
  -6  -5  -2   39.43    6.53
  -6   5  -2   33.17    4.61
  -6  -5   2   29.73    5.63
  -6  -5   2   32.49    5.69
  -6   5  -2   27.00    4.46
   6   5  -2   31.50    3.36
  -6   5   2   35.21    4.55
  -6   5  -2   32.14    3.67
   6  -5  -2   24.51    4.22
  -6   5  -2   34.03    6.12
   6   5   2   36.90    4.09
  -6  -5  -2   30.23    5.06
  -6   5   2   29.06    4.76
  -6   5   2   31.04    3.39
  -6  -5   3   -1.04    2.33
  -6  -5  -3    4.67    3.53
  -6   5  -3    0.08    2.15
   6   5   3    2.63    2.07
  -6  -5   3    0.71    2.80
   6  -5   3   -0.94    2.18
  -6  -5   3   -0.45    3.14
  -6   5  -3   -1.56    2.72
  -6   5   3   -2.32    2.69
  -6   5  -3    4.08    4.34
  -6   5  -3    1.65    1.80
  -6  -5  -3    2.33    2.90
   6   5  -3    0.70    1.09
  -6   5   3   -4.48    5.14
   6  -5   4    3.03    2.88
  -6   5   4   -0.83    3.74
  -6  -5   4    1.49    2.37
  -6  -5  -4    7.22    4.69
  -6   5  -4    4.66    3.25
  -6  -5   4    5.01    5.46
   6   5   4    2.20    1.97
  -6  -5   4    2.88    3.78
  -6   5  -4    3.39    2.91
   6   5  -4   13.40    4.78
  -6   5   4   -0.78    1.97
  -6   5  -4    2.38    1.97
   6   5  -4    4.38    1.91
   6   5   5  183.64    9.97
  -6  -5   5  177.86   12.66
   6  -5   5  195.78    9.89
   6   5  -5  180.21    7.62
  -6   5   5  173.80    9.68
   6   5  -5  174.24   11.52
  -6   5  -5  183.03   11.62
  -6   5  -5  181.69    9.81
  -6  -5  -5  184.44   13.15
  -6   5   5  179.08   12.81
  -6  -5   5  179.80   10.86
  -6  -5   5  162.89   12.24
   6   5   6  102.86    7.76
  -6  -5   6  110.48   10.13
   6   5  -6  101.89    5.88
   6   5  -6  103.77    9.06
  -6   5  -6  102.55    9.30
  -6   5   6  101.16    7.55
  -6  -5  -6  102.09   10.26
  -6  -5  -6  112.49   10.41
  -6   5  -6  106.52    7.90
  -6   5   6  107.24   10.05
  -6  -5   6  105.10    8.53
  -6  -5   6   96.64    9.34
   6   5   7  146.14    9.62
  -6  -5   7  154.46   11.69
   6   5  -7  157.82    7.42
   6   5  -7  165.49   11.35
  -6   5  -7  152.61   11.42
  -6   5   7  149.84    9.19
  -6  -5  -7  179.18   13.45
  -6  -5  -7  159.69   12.03
  -6   5  -7  156.65   10.02
  -6   5   7  153.45   11.98
  -6  -5   7  144.36   10.31
  -6  -5   7  155.68   12.05
  -6  -5  -8   11.35    4.45
  -6   5   8   12.55    4.82
  -6   5   8    9.76    3.02
  -6  -5   8   17.07    3.83
  -6  -5   8    8.67    3.86
   6   5  -8   15.27    2.72
   6   5   8   13.47    3.49
  -6   5  -8   17.86    4.88
   6   5  -8    7.81    3.65
  -6  -5  -8   15.65    4.91
  -6   5  -8   16.09    3.71
   6  -5  -9  128.08   11.60
  -6  -5   9  118.84   10.36
   6   5  -9  115.88    7.01
   6   5   9  122.34    9.43
   6   5  -9  114.66    9.69
  -6   5  -9  119.41   10.49
  -6  -5  -9  137.33   12.29
  -6  -5  -9  120.46   10.68
  -6   5  -9  120.39    9.33
  -6   5   9  121.55    8.58
  -6   5   9  117.42   10.76
  -6   5  10   14.56    4.25
  -6   5  10   14.65    3.47
  -6  -5  10    7.83    3.59
   6   5 -10   13.05    2.85
  -6   5 -10   12.82    4.26
   6   5 -10   11.13    3.45
  -6  -5 -10   13.96    5.70
   6  -5 -10   15.83    5.51
  -6   5 -10   11.82    3.62
  -6  -5 -10   13.49    4.62
  -6   5  11    5.34    3.17
   6   5 -11    7.65    2.70
  -6  -5  11    4.01    3.17
  -6   5  11    8.64    3.15
   6   5 -11    6.54    2.93
  -6   5 -11    4.23    3.20
   6  -5 -11   12.07    5.10
  -6  -5 -11    7.33    5.14
  -6   5 -11    4.21    2.41
  -6  -5 -11    9.71    4.03
  -6  -5  12   19.48    4.83
  -6   5  12   23.44    4.28
  -6   5 -12   18.16    5.26
   6   5 -12   23.15    5.01
   6  -5 -12   26.13    6.09
  -6  -5 -12   29.98    6.70
  -6   5 -12   21.06    5.19
  -6  -5 -12   29.25    6.11
  -6  -5 -13  128.55   11.89
  -6   5  13  142.16   10.21
  -6  -5  13  128.70   11.55
   6   5 -13  133.74   11.58
   6  -5 -13  135.87   12.25
  -6   5 -13  144.10   12.86
  -6  -5 -13  145.43   13.21
  -6  -5 -13  134.32   11.63
  -6   5 -13  127.31   11.04
  -6  -5  14   35.69    6.59
  -6   5  14   32.26    5.23
  -6  -5 -14   28.79    6.28
   6   5 -14   36.92    6.99
  -6   5 -14   28.09    6.22
   6  -5 -14   43.46    7.62
  -6  -5 -14   37.86    7.44
  -6   5 -14   29.64    5.76
  -6  -5 -14   34.87    6.46
  -6  -5  15   19.47    4.88
  -6   5  15   15.47    3.79
  -6  -5 -15   19.97    5.77
   6   5 -15   21.94    5.45
  -6   5 -15   14.19    5.24
   6  -5 -15   18.96    5.14
  -6  -5 -15   16.48    5.41
  -6   5 -15   21.05    5.52
  -6  -5 -15   24.04    5.95
  -6  -5  16    8.92    4.14
  -6  -5 -16    8.14    4.64
  -6   5  16    5.20    2.50
  -6   5 -16   -0.72    3.81
   6  -5 -16    2.11    3.85
  -6  -5 -16    6.01    4.55
   6   5 -16   11.75    4.90
  -6   5 -16    4.46    3.45
  -6  -5 -16   11.52    4.56
  -6  -5  17    1.19    3.05
   6  -5 -17    0.86    3.77
  -6  -5 -17    1.72    3.46
   6   5 -17    6.34    4.53
  -6   5 -17    0.51    4.46
  -6  -5 -17    0.29    3.79
  -6   5 -17    1.00    3.12
  -6  -5 -17    3.70    3.50
  -6  -5  18   95.30   10.61
   6   5 -18   86.65   10.56
   6  -5 -18   98.88   11.69
  -6   5 -18   92.32   11.69
  -6  -5 -18  100.03   10.34
  -6  -5 -18   93.13   11.74
  -6   5 -18   84.76   10.47
  -6  -5 -18   82.60   10.34
  -6  -5  19   21.93    5.64
  -6  -5 -19   26.17    6.78
   6   5 -19   32.09    7.20
  -6   5 -19   31.79    7.45
   6  -5 -19   28.39    6.92
  -6  -5 -19   29.95    7.15
  -6   5 -19   21.85    5.88
  -6  -5 -19   32.61    6.18
  -6  -5  20    0.03    2.90
  -6  -5 -20    1.38    3.81
   6   5 -20   -4.61    4.14
  -6   5 -20   -1.70    4.52
  -6  -5 -20    6.49    3.93
   6  -5 -20   -1.06    3.80
  -6   5 -20   -5.33    5.16
  -6  -5  21   26.17    6.46
  -6  -5 -21   23.74    6.36
   6   5 -21   25.45    6.76
  -6   5 -21   26.56    6.73
   6  -5 -21   24.71    6.06
  -6  -5 -21   23.23    6.71
  -6   5 -21   27.34    6.33
  -6  -5  22    4.69    4.00
  -6  -5 -22    0.74    4.34
   6   5 -22    3.56    3.71
   6  -5 -22   -6.32    5.64
  -6  -5 -22    8.31    4.99
  -6   5 -22   -8.79    5.93
  -6  -5  23    0.47    2.90
   6   5 -23    8.17    5.10
   6  -5 -23    9.27    4.57
  -6   5 -23    5.31    3.58
  -6  -5  24   23.95    6.22
  -6  -5 -24   34.63    8.01
  -6  -5 -25   21.05    6.89
   6   6   0    1.81    1.82
  -6  -6   0    5.27    4.65
   6  -6   0    1.18    2.81
  -6   6   0    5.14    3.45
  -6   6   0    3.02    1.22
  -6   6   0   -0.23    3.22
  -6  -6   0   -1.06    2.74
   6  -6   1  133.98    9.85
  -6   6  -1  131.72    9.49
  -6   6   1  115.97    8.87
  -6  -6   1  132.05   11.28
  -6   6  -1  120.51    8.61
   6   6  -1  119.19    7.38
  -6   6  -1  130.22    6.13
   6   6   1  131.15    8.08
  -6  -6  -1  123.80   11.19
  -6   6  -1  117.49   10.18
  -6  -6  -1  120.86    8.50
  -6  -6   1  138.15   11.58
  -6   6   1  116.42   10.15
  -6  -6   1  118.38    8.40
   6  -6  -1  121.22    9.94
  -6  -6   2   13.71    3.36
  -6  -6  -2   15.27    4.97
   6   6   2   10.99    2.65
  -6  -6   2   11.22    4.67
  -6   6  -2   10.62    3.50
  -6  -6   2   15.75    4.49
  -6   6  -2   13.93    3.54
  -6   6   2    7.70    2.68
  -6   6  -2   12.77    2.35
   6  -6  -2   11.06    3.46
  -6   6  -2   10.73    4.04
   6   6  -2   12.74    2.63
  -6  -6  -2    6.66    2.58
   6  -6   2   16.12    4.25
  -6   6   2    1.96    4.24
  -6  -6   3   18.51    3.83
  -6  -6  -3   29.22    7.56
   6   6   3   17.65    3.61
  -6  -6   3   16.30    5.31
  -6   6  -3   18.22    4.60
  -6  -6   3   20.97    6.10
  -6   6  -3   11.20    3.52
   6  -6   3   20.39    4.68
  -6   6   3    8.88    3.01
   6  -6  -3   12.61    4.11
  -6   6  -3   12.37    2.69
   6   6  -3   20.27    3.49
  -6   6  -3   18.69    5.79
  -6  -6  -3   19.07    4.57
  -6   6   3    7.59    3.92
  -6   6  -4  636.73   21.79
  -6  -6   4  660.42   24.70
   6  -6   4  636.77   19.54
  -6   6   4  643.74   20.47
   6   6  -4  662.81   16.80
   6   6  -4  637.95   20.56
  -6   6  -4  640.33   21.32
  -6  -6  -4  681.96   25.27
  -6   6  -4  624.55   16.74
  -6  -6  -4  656.58   20.45
  -6   6   4  649.99   24.16
   6  -6  -4  641.84   23.74
  -6  -6   4  672.18   25.19
  -6  -6   4  644.04   19.88
   6   6   4  644.43   19.34
  -6   6  -5   92.71    8.73
  -6  -6   5  113.08   10.60
   6   6  -5   92.62    6.43
  -6   6   5   82.52    7.75
   6   6  -5  103.67    8.93
   6  -6  -5   84.48    8.79
  -6   6  -5   84.16    8.43
  -6  -6  -5   91.37    9.94
  -6   6  -5   90.41    6.92
  -6   6   5  100.30    9.92
  -6  -6   5   80.77    7.36
  -6  -6   5   83.19    9.18
   6   6   5   80.43    7.21
  -6  -6  -6   28.75    6.00
  -6   6   6   31.75    5.94
  -6  -6   6   25.08    4.19
  -6  -6   6   30.76    6.13
   6   6   6   24.44    4.38
   6  -6  -6   15.74    3.93
  -6  -6   6   28.90    5.50
  -6   6  -6   37.24    6.01
   6   6  -6   25.95    3.53
   6   6  -6   26.80    5.35
  -6   6  -6   29.00    4.27
  -6   6   6   31.65    4.86
   6   6   7  170.70   10.93
  -6  -6   7  183.37   13.34
   6   6  -7  174.70    8.91
   6   6  -7  176.19   11.65
  -6   6  -7  180.69   12.52
  -6   6   7  179.02   11.03
  -6  -6  -7  169.10   13.75
  -6  -6  -7  171.22   13.01
   6  -6  -7  160.48   12.35
  -6   6  -7  175.96   10.59
  -6   6   7  173.67   13.05
  -6  -6   7  172.72   13.21
  -6   6   8    8.06    2.93
  -6   6   8   11.06    3.64
  -6  -6   8    9.01    3.89
   6   6   8   11.81    3.33
   6   6  -8   10.42    2.67
  -6   6  -8    8.94    3.65
  -6  -6   8    6.70    3.32
   6   6  -8    8.10    3.25
  -6  -6  -8   11.62    4.99
  -6   6  -8   11.50    3.54
  -6  -6  -8    7.23    4.10
  -6   6   9    7.71    2.74
  -6   6   9    7.69    2.54
  -6  -6   9    0.93    3.15
   6   6  -9   11.76    2.90
   6   6   9    7.89    3.17
  -6   6  -9    3.47    3.43
  -6  -6  -9    6.78    4.09
   6   6  -9    4.34    2.81
  -6  -6   9    6.92    3.31
  -6  -6  -9    5.93    4.22
   6  -6  -9   14.71    5.35
  -6   6  -9    6.41    2.81
   6   6  10   60.65    7.42
   6   6 -10   53.44    5.46
  -6  -6  10   54.89    7.61
   6  -6 -10   62.43    8.83
  -6   6 -10   49.87    7.63
  -6  -6 -10   63.25    8.69
   6   6 -10   58.76    7.45
  -6  -6 -10   63.99    9.04
  -6   6 -10   61.15    7.36
  -6   6  10   63.01    6.95
  -6   6  10   59.21    8.34
  -6  -6  11  215.09   14.63
   6   6  11  201.32   13.23
   6   6 -11  211.60   13.79
  -6   6 -11  202.28   14.22
  -6  -6 -11  202.85   14.69
  -6  -6 -11  203.50   15.36
  -6   6 -11  207.07   13.31
  -6   6  11  215.58   12.72
  -6   6  11  201.06   14.77
   6  -6 -11  195.73   14.39
  -6   6 -12   67.14    9.04
   6   6  12   70.04    8.21
  -6  -6  12   73.79    9.03
   6   6 -12   66.46    8.30
   6  -6 -12   74.75    9.16
  -6  -6 -12   69.49    9.81
  -6   6 -12   76.08    8.54
  -6   6  12   73.86    7.82
  -6  -6  13   17.22    5.30
  -6   6  13   21.57    4.64
   6   6 -13   28.45    6.26
  -6   6 -13   19.48    5.81
   6  -6 -13   22.71    5.67
  -6  -6 -13   21.26    6.34
  -6   6 -13   18.72    5.26
  -6  -6  14  261.90   17.34
   6   6 -14  289.31   17.30
   6  -6 -14  278.23   17.72
  -6   6 -14  287.81   18.66
  -6  -6 -14  276.52   19.02
  -6   6 -14  286.28   17.03
  -6   6  14  287.58   15.83
  -6   6  15   73.42    8.39
  -6  -6  15   78.45    9.97
   6  -6 -15   73.37    9.60
   6   6 -15   89.99   10.29
  -6   6 -15   76.91   10.56
  -6  -6 -15   94.00   11.83
  -6   6 -15   83.19   10.06
  -6  -6  16   16.29    4.58
  -6   6  16   18.70    4.45
   6   6 -16   25.02    6.07
  -6   6 -16   26.89    6.92
   6  -6 -16   21.65    5.90
  -6  -6 -16   21.58    6.32
  -6   6 -16   21.85    5.99
  -6  -6 -16   26.46    6.33
  -6  -6  17   16.85    5.13
  -6   6  17   15.13    4.22
   6   6 -17   20.93    5.72
  -6   6 -17   20.44    6.58
   6  -6 -17   13.20    4.82
  -6  -6 -17   16.91    6.08
  -6   6 -17   17.50    5.36
  -6  -6 -17   14.15    4.94
  -6  -6  18   48.52    8.22
  -6  -6 -18   56.49    8.70
  -6   6  18   50.53    7.34
   6   6 -18   59.34    8.92
   6  -6 -18   48.64    8.44
  -6  -6 -18   53.72    9.59
  -6   6 -18   42.96    7.84
  -6  -6  19    9.61    4.35
  -6  -6 -19   23.02    6.47
   6   6 -19   12.38    4.91
   6  -6 -19    9.64    4.49
  -6  -6 -19   17.68    5.97
  -6   6 -19   17.21    5.38
  -6  -6  20    3.74    3.05
  -6  -6 -20   16.06    5.50
   6   6 -20    2.88    3.25
   6  -6 -20    0.04    3.81
  -6  -6 -20   12.49    5.61
  -6   6 -20    7.54    3.63
  -6  -6  21    8.02    3.94
   6   6 -21   10.04    4.34
   6  -6 -21    8.34    5.04
  -6  -6 -21   13.77    6.46
  -6   6 -21   10.31    4.72
  -6  -6 -21    9.61    4.78
  -6  -6  22   36.61    7.61
  -6  -6 -22   47.70    8.77
   6   6 -22   43.81    8.56
   6  -6 -22   35.06    7.69
  -6   6 -22   41.86    8.24
  -6  -6  23   20.21    5.95
  -6  -6 -23   24.94    6.93
   6  -6 -23   21.15    6.91
  -6  -6  24   37.31    7.87
  -6  -6 -24   37.29    8.20
   6  -7   0  151.83   11.32
  -6   7   0  161.88   11.22
  -6  -7   0  155.12   12.56
  -6   7   0  151.07    9.07
  -6  -7   0  144.03   12.43
  -6   7   0  143.27   11.46
  -6  -7   0  147.07    8.97
   6   7   0  154.52    9.42
   6  -7  -1   89.33    9.35
   6  -7   1   83.19    8.53
  -6   7  -1   71.59    7.84
  -6   7   1   75.70    7.74
  -6  -7   1   68.22    8.68
  -6  -7  -1   72.86    8.96
  -6   7  -1   72.47    6.57
   6   7  -1   73.01    6.50
   6   7   1   76.74    6.92
  -6  -7  -1   80.49    9.66
  -6  -7   1   87.38    9.70
  -6  -7  -1   70.96    6.36
  -6  -7   1   68.66    6.30
  -6   7  -1   74.23    8.11
  -6   7   1   63.90    7.64
   6  -7  -2  216.49   14.24
  -6   7  -2  214.28   13.17
  -6  -7   2  232.59   15.38
  -6   7   2  217.40   12.97
   6  -7   2  234.90   13.40
   6   7  -2  203.45   10.56
  -6   7  -2  217.13   11.72
  -6  -7  -2  210.20   14.94
   6   7   2  226.96   12.01
  -6   7  -2  219.31   14.21
  -6  -7   2  218.72   15.29
  -6  -7  -2  209.97   10.96
  -6   7   2  202.78   13.54
  -6  -7   2  212.62   10.85
  -6   7  -3  124.11   10.25
  -6  -7   3  112.78   11.14
  -6   7   3  118.06    9.58
   6   7  -3  123.62    8.21
  -6   7  -3  121.47    9.02
  -6  -7  -3  125.17   11.58
  -6   7  -3  112.92    6.56
  -6   7  -3  114.35   10.37
  -6  -7  -3  116.26    8.31
  -6  -7   3  114.79   11.21
   6   7   3  110.77    8.58
  -6   7   3  118.72   10.46
  -6  -7   3  110.34    7.94
   6  -7  -3  125.69   10.96
  -6   7   4    1.47    3.34
  -6  -7   4   -0.02    1.80
   6  -7  -4   -1.44    3.93
   6   7   4    1.83    2.23
  -6  -7   4    2.70    3.66
  -6   7  -4    0.45    2.95
  -6  -7   4   -4.61    4.24
  -6   7  -4   -1.24    2.55
  -6   7   4   -5.21    3.29
   6   7  -4   -0.78    1.75
  -6   7  -4   -0.48    1.64
  -6   7  -4    1.81    3.48
  -6  -7  -4    5.50    3.15
  -6  -7  -4    0.26    4.00
   6  -7  -5   18.13    4.81
  -6   7   5   26.58    5.57
  -6  -7   5   28.01    4.00
   6   7   5   26.96    4.86
  -6   7  -5   22.61    5.13
  -6  -7   5   23.74    5.42
  -6  -7   5   26.06    5.71
  -6   7  -5   23.14    4.49
   6   7  -5   25.86    3.96
   6   7  -5   31.40    5.23
  -6  -7  -5   33.20    4.98
  -6   7   5   29.80    5.16
  -6   7  -5   25.70    3.66
  -6  -7  -5   31.44    6.48
  -6   7   6    1.33    2.81
  -6   7  -6    2.41    3.01
   6   7   6    2.59    2.37
  -6  -7   6    0.14    3.31
  -6  -7   6   -0.80    3.13
  -6   7  -6    3.47    3.22
   6   7  -6    0.23    1.66
   6   7  -6   -1.92    2.53
  -6   7  -6    1.69    1.75
  -6   7   6    1.99    2.40
   6  -7  -6   -5.59    4.78
  -6  -7  -6    0.90    3.72
  -6   7   7   -1.01    2.56
  -6  -7   7   -0.15    4.61
   6   7   7    2.91    2.43
  -6  -7   7   -1.34    3.72
   6   7  -7    1.93    1.69
  -6   7  -7    2.87    2.45
  -6  -7  -7    4.32    4.14
   6   7  -7    4.24    3.13
   6  -7  -7   -9.70    5.90
  -6   7  -7   -1.31    1.85
  -6   7   7    0.48    2.03
   6   7  -8    0.94    1.88
  -6   7   8   -3.52    3.22
  -6  -7   8   -2.23    4.30
   6   7   8   -1.25    2.25
  -6  -7   8   -3.12    3.64
  -6   7  -8   -4.87    3.40
   6   7  -8   -1.74    2.35
   6  -7  -8   -9.56    5.89
  -6   7  -8   -1.46    2.07
  -6   7   8    3.76    2.57
  -6   7   9    3.98    2.34
  -6   7   9    1.62    3.09
  -6  -7   9   -2.54    4.21
   6   7   9    2.95    2.30
   6   7  -9    9.23    3.04
  -6  -7   9   -1.82    3.91
  -6   7  -9    2.60    2.78
  -6  -7  -9    4.23    3.91
   6   7  -9    2.28    2.47
   6  -7  -9   -2.14    5.07
  -6   7  -9    5.96    2.40
  -6   7  10   34.48    5.65
  -6   7  10   47.24    7.46
  -6  -7  10   31.56    6.38
   6   7  10   41.53    6.15
  -6   7 -10   37.20    6.64
   6   7 -10   33.77    5.69
   6  -7 -10   31.57    6.26
  -6  -7  10   34.48    6.21
  -6  -7 -10   43.32    7.73
   6  -7 -10   47.56    7.91
  -6   7 -10   35.16    5.68
  -6   7  11   -0.10    2.57
  -6  -7  11   -1.42    3.63
   6   7  11    7.40    3.32
   6  -7 -11   -4.21    4.94
  -6   7 -11   -2.13    3.17
   6   7 -11   -0.21    2.49
  -6  -7 -11    1.38    3.75
   6  -7 -11    8.78    4.96
  -6   7 -11    3.25    3.01
  -6   7  12   11.68    3.45
  -6  -7  12   18.64    5.98
   6   7  12   17.46    4.68
   6  -7 -12   12.23    3.94
  -6   7 -12   20.06    5.27
   6   7 -12   11.92    3.81
  -6  -7 -12   17.61    6.33
   6  -7 -12   29.23    6.70
  -6   7 -12   15.88    4.34
  -6  -7  13    6.43    3.79
  -6   7  13   12.96    4.22
   6  -7 -13    9.76    4.08
   6   7  13   11.50    4.24
   6   7 -13   12.76    4.47
  -6   7 -13   13.51    5.12
  -6  -7 -13   11.42    6.17
   6  -7 -13   20.22    5.93
  -6   7 -13    9.05    4.36
  -6  -7  14   28.33    6.47
  -6   7  14   34.69    5.92
   6  -7 -14   26.08    6.22
   6   7  14   29.65    6.26
   6   7 -14   41.50    7.16
  -6   7 -14   26.77    6.19
  -6  -7 -14   38.02    8.11
   6  -7 -14   34.88    7.24
  -6   7 -14   24.53    5.82
  -6  -7  15    2.60    3.02
  -6   7  15   12.22    4.35
   6  -7 -15    1.09    4.40
   6   7 -15   10.12    4.55
  -6   7 -15    6.67    4.83
   6  -7 -15   14.76    5.22
  -6  -7 -15    8.67    4.85
  -6   7 -15    5.31    3.25
  -6  -7  16   -1.78    4.04
  -6   7  16    6.63    3.36
   6  -7 -16    8.90    5.38
   6   7 -16    6.80    4.10
   6  -7 -16    5.07    3.30
  -6  -7 -16   11.72    5.22
  -6   7 -16    4.64    3.08
  -6  -7  17    9.79    4.33
  -6   7  17    9.61    3.75
   6  -7 -17    9.42    4.98
   6   7 -17   13.57    5.18
   6  -7 -17   11.81    4.66
  -6  -7 -17   16.07    6.61
  -6   7 -17    7.44    4.06
  -6  -7  18   29.96    7.02
  -6   7  18   20.30    4.83
   6  -7 -18   19.99    5.35
   6   7 -18   21.64    5.96
   6  -7 -18   23.91    6.23
  -6  -7 -18   30.67    7.86
  -6   7 -18   27.34    6.60
  -6  -7  19   -3.19    3.89
   6  -7 -19   -2.86    4.41
   6  -7 -19   -1.76    3.93
  -6  -7 -19   -1.45    4.60
  -6   7 -19    2.84    3.53
   6   7 -19    2.15    3.62
  -6  -7  20    3.15    3.87
   6  -7 -20   -2.80    5.23
   6   7 -20    8.51    4.20
   6  -7 -20    1.46    3.60
  -6  -7 -20    7.67    5.08
  -6   7 -20   -8.26    4.52
  -6  -7  21    4.99    4.49
  -6  -7 -21   -5.72    4.75
   6   7 -21   -1.43    3.58
   6  -7 -21    3.93    4.33
  -6   7 -21   -2.94    4.00
  -6  -7  22   11.73    4.86
  -6  -7 -22   11.05    5.34
   6   7 -22    7.71    4.50
   6  -7 -22    8.22    4.26
  -6   7 -22    8.59    4.13
   6  -7 -23    0.01    3.69
  -6  -7 -23   -0.38    3.46
  -6  -8   0    9.21    3.92
  -6  -8   0    6.87    4.11
  -6   8   0    5.98    2.11
  -6   8   0    6.11    3.05
   6   8   0    7.72    2.16
   6  -8   0   10.26    4.19
  -6   8   0    1.69    3.36
   6   8   1    9.72    3.22
  -6  -8  -1    6.93    4.03
  -6  -8   1    7.08    4.07
  -6  -8   1    5.54    3.44
  -6  -8  -1    6.74    3.45
  -6   8  -1    8.25    3.65
  -6   8  -1   10.96    2.99
  -6   8   1   15.92    4.34
   6   8  -1   10.40    3.02
   6  -8  -1   14.40    4.68
  -6   8  -1    4.41    2.88
  -6   8   1    2.57    3.51
  -6   8   2   34.61    5.82
  -6  -8  -2   40.87    7.27
   6   8   2   35.49    5.33
  -6  -8   2   43.14    7.30
  -6  -8   2   33.68    6.82
  -6  -8  -2   45.47    7.97
   6  -8  -2   42.52    7.18
  -6   8  -2   42.35    6.85
  -6   8  -2   36.39    5.06
  -6   8   2   43.56    6.41
   6   8  -2   39.83    5.33
  -6   8  -2   32.68    5.98
   6  -8  -3  169.15   13.39
  -6   8  -3  167.09   12.61
  -6  -8   3  167.00   13.70
  -6   8   3  164.53   12.05
   6   8  -3  162.66   10.32
  -6   8  -3  169.81   10.56
  -6  -8  -3  160.08   13.69
   6   8   3  154.34   10.95
  -6  -8   3  165.70   13.69
  -6   8  -3  156.63   12.42
  -6   8   3  162.46   12.56
  -6   8   4   56.88    7.72
  -6  -8   4   53.92    8.43
  -6  -8   4   54.92    8.44
  -6   8  -4   62.57    8.20
   6   8  -4   57.49    6.28
  -6   8  -4   54.16    6.42
  -6   8   4   55.77    7.13
  -6   8  -4   56.10    8.20
   6   8   4   53.19    6.78
   6  -8  -4   68.69    9.07
  -6  -8  -4   63.48    9.29
   6  -8  -5  153.68   13.24
  -6   8  -5  158.46   12.48
  -6  -8   5  174.05   14.08
   6   8  -5  152.77   10.01
  -6   8   5  145.00   11.49
   6   8  -5  163.87   10.62
  -6   8  -5  150.61   10.67
  -6  -8  -5  158.06   13.64
  -6   8  -5  158.48   12.77
  -6  -8   5  154.77   13.39
   6   8   5  167.17   11.65
  -6   8   5  154.68   12.30
  -6   8   6   -1.89    2.98
   6   8   6    1.74    2.91
  -6  -8   6   -0.85    2.98
  -6   8  -6    8.40    4.32
  -6  -8   6   -3.18    4.21
   6  -8  -6    5.57    4.55
  -6   8  -6    0.01    2.56
   6   8  -6   -4.78    3.21
   6   8  -6    0.79    2.82
  -6   8   6    3.21    2.79
  -6   8  -7  334.68   18.36
  -6  -8   7  317.10   19.27
   6   8  -7  331.45   14.86
   6   8  -7  310.27   15.03
  -6   8   7  305.90   16.71
  -6   8  -7  296.91   15.76
  -6   8  -7  317.17   14.09
  -6  -8   7  315.22   18.74
  -6   8   7  321.42   17.95
   6   8   7  313.18   16.39
   6  -8  -7  340.94   19.72
  -6   8   8    5.39    3.58
  -6   8  -8    9.67    4.67
   6  -8  -8   10.19    5.14
  -6  -8   8   10.03    4.66
   6   8   8   14.41    4.29
  -6  -8   8    5.49    3.84
   6   8  -8    3.67    2.12
  -6   8  -8    8.75    3.95
   6   8  -8    9.37    3.80
  -6   8  -8   11.29    3.47
  -6   8   8    8.74    3.78
  -6   8   9   16.83    4.50
  -6   8   9    6.40    3.22
   6  -8  -9    9.46    4.29
  -6  -8   9   15.04    4.55
   6   8   9   14.85    4.16
  -6  -8   9    8.73    3.80
  -6   8  -9    8.38    3.72
   6   8  -9    8.62    3.15
  -6   8  -9   16.18    3.60
   6  -8 -10   10.49    5.19
  -6   8  10   11.96    4.05
  -6   8  10   19.45    5.24
  -6  -8  10   23.64    6.42
   6   8  10   12.55    3.97
  -6  -8  10   13.00    3.81
  -6   8 -10   13.04    4.60
   6   8 -10   14.28    3.64
  -6   8 -10   14.70    4.04
   6   8  11  159.41   12.91
  -6  -8  11  156.30   13.95
   6   8 -11  149.45   11.62
  -6   8 -11  153.32   12.90
  -6  -8 -11  157.82   14.52
  -6   8  11  146.61   12.00
  -6   8 -11  159.89   11.73
   6  -8 -11  164.15   14.56
  -6  -8  11  136.21   12.82
  -6   8  12    9.69    3.65
  -6  -8  12    8.09    5.00
   6   8  12    6.30    3.57
  -6   8 -12    7.81    4.64
   6   8 -12   -0.91    3.31
  -6  -8 -12   14.83    6.11
   6  -8 -12   18.03    5.89
  -6   8 -12    4.91    2.99
   6  -8 -12    3.67    4.74
  -6  -8  13    6.43    4.19
  -6   8  13    4.63    2.99
   6   8  13    5.56    3.86
   6   8 -13   -4.42    4.08
  -6   8 -13    5.62    3.99
  -6  -8 -13    6.46    5.14
   6  -8 -13   13.57    5.38
  -6   8 -13   10.29    4.13
   6  -8 -13    6.69    3.90
  -6  -8  14   19.87    5.92
  -6   8  14   28.13    5.93
   6   8  14   25.79    6.33
   6   8 -14   19.94    4.88
  -6   8 -14   18.85    6.11
  -6  -8 -14   30.50    8.32
   6  -8 -14   20.71    6.11
  -6   8 -14   22.10    5.56
   6  -8 -14   26.05    7.25
  -6  -8  15  238.95   17.71
   6   8  15  235.19   17.15
   6  -8 -15  219.00   16.41
   6   8 -15  229.29   15.81
  -6  -8 -15  249.89   18.96
  -6   8 -15  216.48   15.75
   6  -8 -15  228.40   18.63
  -6   8  15  238.18   16.12
  -6  -8  16    3.73    4.09
  -6   8  16   -0.15    2.64
   6   8 -16    1.89    3.51
   6   8  16    2.20    3.44
  -6  -8 -16    6.58    5.67
   6  -8 -16    3.96    4.33
   6  -8 -16   -0.23    4.23
  -6   8 -16    5.97    3.60
  -6   8  17   94.76   10.68
  -6  -8  17   89.82   11.50
   6   8 -17   97.41   10.95
   6  -8 -17   99.23   11.47
  -6  -8 -17  111.39   13.30
  -6   8 -17   92.23   10.94
   6  -8 -17   98.57   12.87
  -6  -8  18    1.97    3.88
  -6   8  18    1.06    2.68
   6   8 -18    1.11    2.93
   6  -8 -18    7.92    4.59
  -6  -8 -18    5.68    5.55
   6  -8 -18   -3.17    4.92
  -6   8 -18    4.63    3.82
  -6  -8  19   56.18    9.50
   6   8 -19   49.74    8.51
   6  -8 -19   43.53    8.11
  -6  -8 -19   47.43    9.07
  -6   8 -19   48.01    8.54
  -6  -8  20    5.25    3.83
   6   8 -20    7.68    3.78
   6  -8 -20   10.03    4.87
  -6   8 -20   11.42    5.44
   6   8 -21   80.44   10.89
   6  -8 -21   69.85   10.52
  -6   8 -21   74.95   10.91
  -6  -9   0   73.50    9.57
  -6   9   0   78.71    9.07
   6   9   0   83.61    8.20
  -6  -9   0   82.86   10.13
  -6   9   0   67.69    8.08
  -6  -9   1    9.21    3.98
  -6  -9   1   10.26    4.13
  -6  -9  -1   10.91    4.78
  -6   9  -1    1.17    2.48
  -6   9   1   10.49    4.19
   6   9  -1    9.42    3.08
  -6   9  -1    1.13    3.71
   6   9   1    7.60    3.00
  -6  -9  -1    9.31    4.52
  -6   9   1    4.47    2.70
  -6   9   2    1.85    2.34
   6   9   2   -1.68    2.23
  -6  -9   2    4.06    3.53
  -6  -9   2   -7.10    5.26
  -6  -9  -2    1.61    3.64
  -6   9  -2    0.28    2.53
   6  -9  -2    7.67    4.84
  -6   9   2   -3.47    3.56
   6   9  -2    2.90    2.51
  -6   9  -2   -6.68    3.86
  -6  -9  -2    2.79    3.93
  -6   9   3    5.51    3.28
   6   9   3    5.81    3.26
  -6  -9   3    4.87    3.61
  -6  -9   3    4.62    4.30
  -6  -9  -3    7.91    4.21
  -6   9  -3    8.86    4.25
   6  -9  -3   15.94    5.20
  -6  -9  -3    2.90    3.41
  -6   9   3    4.00    2.62
   6   9  -3   11.58    3.52
  -6   9  -3    0.63    3.31
  -6   9   4   -1.16    3.06
   6   9   4    4.67    2.96
  -6  -9   4    8.11    4.80
  -6  -9   4    7.78    4.67
  -6  -9  -4    6.39    4.86
  -6   9  -4   -0.33    3.53
  -6   9  -4    3.67    2.33
  -6  -9  -4    4.47    3.77
  -6   9   4    0.77    2.94
   6   9  -4    3.16    2.09
   6  -9  -4   10.80    5.19
  -6   9  -4    5.19    3.27
  -6  -9   5  125.16   12.86
  -6   9  -5  119.54   11.68
   6  -9  -5  139.91   13.24
   6   9  -5  129.48   10.04
  -6   9   5  137.29   11.92
  -6   9  -5  128.29    9.80
  -6   9  -5  142.96   12.15
  -6  -9   5  135.13   12.91
   6   9   5  126.50   10.67
  -6   9   5  122.65   11.18
  -6   9   6   32.56    6.14
   6   9   6   28.60    5.77
  -6  -9   6   18.13    5.45
   6  -9  -6   38.70    7.43
  -6  -9   6   32.67    7.14
  -6   9  -6   33.84    6.56
  -6   9  -6   35.52    5.70
   6   9  -6   30.35    5.13
  -6   9   6   30.17    6.07
  -6   9  -6   38.83    6.90
   6  -9  -7    2.71    4.54
  -6   9   7    2.75    2.94
   6   9   7   -2.28    2.98
  -6  -9   7   -2.51    3.66
  -6  -9   7    5.52    4.96
  -6   9  -7    7.63    4.81
  -6   9  -7    3.59    3.19
  -6   9   7   -1.40    2.37
  -6   9   8   18.15    4.76
  -6   9  -8   22.35    5.56
  -6  -9   8   19.27    6.11
   6   9   8   26.79    5.57
  -6  -9   8   22.77    5.84
  -6   9  -8   20.36    4.93
   6  -9  -8   26.31    6.85
  -6   9   8   22.05    5.18
  -6   9   9   10.28    4.09
  -6   9  -9    8.33    3.74
  -6   9   9   10.57    4.01
  -6   9  -9   12.87    5.45
  -6  -9   9   12.20    4.88
   6   9   9    4.82    2.71
  -6  -9   9   12.93    4.78
   6  -9  -9   10.57    5.37
  -6   9  10    8.83    3.58
  -6   9 -10    7.75    4.19
  -6  -9  10    5.27    4.27
   6   9  10    4.88    2.93
  -6  -9  10    4.21    3.49
  -6   9 -10    2.18    3.07
   6  -9 -10    6.40    4.39
  -6   9  11    1.24    2.20
  -6  -9  11    0.20    3.72
   6   9  11    2.51    2.68
  -6  -9  11    2.06    3.18
   6  -9 -11   -3.70    4.61
  -6   9 -11   -1.47    3.62
  -6   9  12    8.38    3.59
  -6  -9  12   13.23    5.31
   6   9  12    8.43    3.56
   6  -9 -12   17.00    5.73
  -6   9 -12    6.99    3.51
  -6  -9  12    4.86    3.26
  -6   9 -12   10.38    3.79
  -6   9  13   13.70    4.53
  -6  -9  13    8.17    4.02
   6  -9 -13   17.86    6.38
   6   9  13   14.50    4.50
  -6   9 -13    2.59    2.96
  -6   9 -13   11.56    4.01
  -6  -9  14   10.94    4.67
  -6   9  14   14.91    4.55
   6  -9 -14   15.74    5.71
   6   9  14   14.61    4.71
  -6   9 -14   12.23    4.78
  -6  -9 -14   13.79    5.70
   6  -9 -14   20.35    6.07
  -6   9 -14   15.15    4.53
  -6  -9  15    8.19    4.56
  -6   9  15    3.66    3.31
   6  -9 -15    6.48    4.99
   6   9  15   -1.68    2.84
  -6  -9 -15    4.38    4.99
   6  -9 -15    8.58    4.75
  -6   9 -15    1.58    2.42
  -6  -9  16    2.74    3.55
   6  -9 -16   -0.92    4.90
  -6   9  16    1.60    2.42
   6   9  16   -0.51    2.96
  -6  -9 -16   10.05    6.03
   6  -9 -16   11.94    5.04
  -6   9 -16    8.01    4.59
  -6  -9  17   10.37    5.11
  -6   9  17    8.60    3.77
   6   9  17    3.73    3.33
  -6  -9 -17    5.00    4.92
  -6   9 -17    8.94    4.75
  -6  -9 -18    2.64    4.79
  -6   9 -18    4.81    3.98
  -6   9 -19    2.04    3.42
  -6   9 -20    4.18    4.00
  -6 -10   0   80.29   10.57
  -6 -10   0  103.53   11.91
  -6  10   0   87.82   10.08
   6  10   0   79.41    8.66
  -6  10   0   73.96    8.59
  -6  10   1    3.04    2.67
  -6 -10   1    6.57    4.12
  -6 -10   1   11.07    4.52
  -6 -10  -1    8.79    4.95
  -6  10  -1    8.30    3.60
  -6  10   1    4.45    2.85
   6  10  -1    8.47    3.25
  -6 -10  -1   16.64    5.72
   6  10   1    9.63    3.56
  -6  10  -1    4.25    3.00
   6  10   2    2.19    2.33
  -6  10   2    0.22    2.56
  -6 -10   2    3.94    4.02
  -6 -10   2    3.63    4.39
  -6 -10  -2   -2.75    3.93
  -6  10  -2    3.16    3.98
  -6 -10  -2    7.67    4.72
  -6  10   2   -0.12    3.19
   6  10  -2    3.89    2.82
  -6  10  -2   -3.10    4.14
  -6  10   3   33.65    5.99
   6  10   3   31.78    5.68
  -6 -10   3   38.91    7.59
  -6 -10   3   36.33    7.88
  -6 -10  -3   23.68    6.60
  -6  10  -3   33.45    6.78
  -6 -10  -3   34.88    7.52
  -6  10   3   32.79    6.52
   6  10  -3   34.49    5.78
  -6  10  -3   27.50    5.78
  -6 -10   4  129.27   13.22
  -6  10  -4  128.14   12.56
  -6 -10  -4  141.95   13.85
  -6  10   4  140.24   12.64
   6  10  -4  117.54   10.39
   6 -10  -4  143.83   13.70
   6  10   4  123.38   11.14
  -6 -10   4  107.75   11.99
  -6  10  -4  124.67   11.42
  -6  10   4  113.15   10.55
  -6  10   5    2.27    2.19
   6  10   5    6.89    3.60
  -6 -10   5    9.33    4.72
  -6 -10   5   10.23    5.43
  -6 -10  -5    6.17    5.12
  -6  10  -5    3.07    3.01
   6 -10  -5   11.17    5.60
  -6  10   5    9.07    4.15
  -6  10  -5    4.30    3.29
  -6  10   6   21.68    5.35
  -6 -10   6   28.75    6.59
   6  10   6   27.97    5.81
  -6 -10   6   34.46    7.63
  -6  10  -6   27.80    6.44
  -6 -10  -6   29.42    6.96
   6 -10  -6   37.05    7.90
  -6  10   6   23.59    5.60
  -6  10  -6   33.57    6.32
  -6  10   7    9.47    3.76
   6 -10  -7   16.50    5.77
   6  10   7    7.79    3.81
  -6 -10   7   11.68    5.01
  -6 -10   7   13.58    5.19
  -6  10  -7   17.02    5.64
  -6 -10  -7   16.37    6.47
  -6  10  -7   11.14    4.51
  -6  10   7    6.69    3.80
  -6 -10   8  114.06   12.65
  -6  10  -8  129.40   13.06
   6 -10  -8  121.96   13.77
  -6  10   8  108.66   11.61
  -6  10  -8  122.99   11.68
  -6 -10   8   85.31   11.07
   6  10   8  101.17   10.64
  -6  10   8  104.17   10.77
  -6 -10   9    5.16    4.55
  -6  10  -9    5.41    4.40
   6  10   9    2.76    3.18
  -6 -10   9    0.07    2.76
  -6  10  -9   -0.42    2.63
   6 -10  -9    3.29    3.86
  -6  10   9   -1.30    3.07
  -6  10  10   45.49    7.51
  -6 -10  10   51.83    9.23
  -6  10 -10   52.34    8.88
   6  10  10   49.97    7.77
  -6 -10  10   46.78    8.14
   6 -10 -10   56.08    9.63
  -6  10 -10   40.07    6.87
  -6 -10  11   65.93   10.18
  -6  10 -11   57.62    9.39
   6 -10 -11   61.40   10.30
   6  10  11   48.16    7.86
  -6 -10  11   55.08    8.73
  -6  10 -11   56.23    8.15
  -6  10  11   65.85    9.31
  -6  10 -12   61.06    9.73
   6 -10 -12   70.91   11.36
  -6 -10  12   72.77   10.66
   6  10  12   55.62    8.71
  -6 -10  12   51.82    8.55
  -6  10 -12   40.80    7.26
  -6  10  12   71.59    9.55
   6 -10 -13   -0.53    3.80
  -6  10  13    1.79    3.02
  -6 -10  13   -6.33    4.80
   6  10  13   -0.89    2.46
  -6  10 -13    6.34    4.13
  -6 -10  13   -1.24    3.19
   6 -10 -14   65.38   10.60
   6  10  14   76.85   10.32
  -6 -10  14   73.37   10.85
  -6  10 -14   87.68   10.78
  -6  10  14   79.23   10.19
  -6 -10  15   28.76    7.10
  -6  10  15   31.34    6.70
   6  10  15   33.78    7.45
  -6  10  16    3.35    2.64
   6  10  16    6.81    4.17
  -6  10  17    5.17    3.82
   6  10  17    7.14    4.12
   6  10  18   55.90    9.62
  -6 -11   0    9.66    4.90
  -6  11   0    5.26    3.84
   6  11   0    1.75    2.23
  -6 -11   0   10.33    5.18
  -6 -11   1   20.53    6.04
  -6 -11   1   19.41    5.99
  -6 -11  -1   16.39    5.55
  -6  11   1   17.93    4.85
  -6  11  -1   18.93    5.29
   6  11  -1   18.07    4.73
  -6 -11  -1   24.30    6.86
   6  11   1   21.65    5.12
   6  11   2   20.15    4.90
  -6 -11   2   22.50    6.25
  -6 -11   2   19.51    6.30
  -6 -11  -2   22.01    5.82
  -6  11  -2   24.04    6.18
  -6 -11  -2   28.05    7.31
  -6  11   2   16.34    5.03
   6  11   3   41.98    6.83
  -6 -11   3   57.41    9.31
  -6 -11   3   40.44    8.41
  -6 -11  -3   40.22    7.79
  -6  11  -3   44.51    7.77
  -6  11   3   47.18    7.80
   6  11   4    0.02    2.22
  -6 -11   4    2.89    3.48
  -6 -11   4    2.54    3.28
  -6 -11  -4    3.73    3.43
  -6  11  -4    1.39    2.79
  -6  11   4   -0.14    3.05
  -6 -11   5    0.26    3.26
   6  11   5   -3.81    3.20
  -6 -11   5   -0.65    4.39
  -6 -11  -5    5.42    4.65
  -6  11  -5    8.66    4.70
  -6  11   5   -4.07    3.81
  -6 -11   6    1.95    3.56
   6  11   6   -2.20    3.30
  -6 -11   6    2.99    3.66
  -6 -11  -6    4.54    3.51
  -6  11  -6   -5.44    4.20
  -6  11   6    3.48    3.13
  -6 -11   7    4.45    3.36
   6  11   7    2.14    2.43
  -6 -11   7    3.78    4.19
  -6 -11  -7    6.36    3.97
  -6  11  -7    3.04    3.89
  -6  11   7    2.77    3.26
  -6 -11   8    5.43    4.21
   6  11   8   -0.81    2.99
  -6 -11   8   -2.87    4.87
  -6  11  -8    1.72    3.71
  -6 -11  -8    4.02    3.18
   6 -11  -8    8.41    5.25
  -6  11   8    0.54    2.34
  -6 -11   9    7.64    4.85
   6  11   9    8.94    4.01
  -6 -11   9   10.26    4.00
  -6  11  -9   14.16    5.46
  -6 -11  -9   12.21    5.57
   6 -11  -9   12.59    5.74
  -6  11   9   14.34    4.95
  -6  11  10    4.52    3.98
   6 -11 -10    5.66    4.75
  -6 -11  10   -6.47    5.51
   6  11  10   -2.77    3.32
  -6  11 -10   11.14    5.17
  -6 -11  10    0.69    3.07
  -6 -11 -10    8.65    4.97
  -6  11  11    4.70    3.49
  -6 -11  11    1.06    4.20
  -6  11 -11    9.59    5.20
   6  11  11   -2.27    3.23
  -6 -11  11    3.89    3.23
   6 -11 -11    9.93    5.71
  -6  11  12   22.62    6.09
  -6  11 -12   23.81    6.79
   6  11  12   20.34    5.69
  -6 -11  12   18.76    5.29
  -6  11  13   12.92    4.57
  -6  11 -13   24.38    7.28
   6  11  13   14.89    4.73
  -6 -11  13   16.58    5.25
  -6  11  14    5.70    3.99
   6  11  14    2.20    3.15
  -6  11  15   -1.87    3.68
   6  11  15    6.00    3.63
  -6  11 -15   -2.09    3.61
  -6  11  16    8.40    4.30
   6  11  16    5.57    3.88
  -6 -12   0   21.97    6.51
  -6  12   0   23.69    6.39
  -6 -12   0   37.68    8.42
  -6 -12   1   34.40    8.15
  -6 -12   1   31.74    8.14
  -6 -12  -1   21.84    6.35
  -6  12  -1   21.55    6.01
  -6  12   1   21.78    5.72
  -6 -12  -1   28.58    7.74
  -6 -12   2   33.11    7.55
  -6 -12   2   36.44    8.07
  -6 -12  -2   47.65    8.95
  -6  12  -2   20.94    5.96
  -6 -12  -2   51.07    9.81
  -6  12   2   28.61    7.21
   6  12   3   26.32    6.01
  -6 -12   3   21.07    6.71
  -6 -12   3   15.58    5.67
  -6 -12  -3   35.91    7.84
  -6  12  -3   37.54    7.90
  -6  12   3   21.06    6.08
  -6 -12   4   23.05    6.67
   6  12   4   13.91    4.40
  -6 -12   4   16.41    5.91
  -6 -12  -4   13.72    5.54
  -6  12  -4   23.70    6.58
  -6  12   4    7.36    3.79
  -6 -12   5    9.44    4.31
   6  12   5    5.77    3.44
  -6 -12   5   12.32    4.86
  -6 -12  -5    6.72    3.95
  -6  12  -5   22.81    6.56
  -6  12   5    5.62    3.79
  -6 -12   6   -6.57    4.81
   6  12   6    0.60    2.62
  -6 -12   6   -5.81    4.31
  -6 -12  -6   -3.07    4.29
  -6  12  -6   10.26    5.03
  -6  12   6    5.78    3.81
  -6 -12   7    5.92    4.29
   6  12   7   -1.15    3.00
  -6 -12  -7    6.32    4.78
  -6  12  -7   13.00    5.65
  -6  12   7    2.71    3.39
  -6 -12   8    7.85    3.85
   6  12   8   11.35    4.43
  -6 -12  -8   10.20    5.28
  -6  12  -8    7.63    4.62
  -6  12   8   10.44    4.39
   6  12   9   13.36    5.09
  -6 -12   9   12.07    5.21
  -6 -12  -9   29.09    7.58
  -6  12  -9    8.16    4.16
  -6  12   9   14.22    4.89
  -6  12  10    8.46    4.86
   6  12  10    2.52    3.18
  -6 -12  10   -0.92    2.93
  -6  12 -10    0.45    3.81
  -6 -12 -10    6.82    4.91
  -6  12  11   61.29    9.85
   6  12  11   47.01    8.41
  -6 -12 -11   58.84    9.99
  -6 -12  11   56.70    9.43
  -6  12  12    0.07    3.02
   6  12  12    2.81    3.70
  -6 -12  12   -0.70    3.09
  -6  12  13    6.48    4.19
   6  12  13    3.95    3.13
  -6  13   0   22.74    6.20
  -6  13  -1   -4.48    3.61
  -6  13   1   -0.61    3.33
  -6  13  -2   -0.35    2.75
  -6  13   2   -5.16    4.33
  -6  13  -3    5.73    4.16
  -6  13   3    4.68    4.27
  -6  13  -4    0.97    3.01
  -6  13   4    3.48    3.75
  -6  13   5    4.99    4.20
  -6  13   6   -1.89    3.04
  -6  13   7    0.66    2.89
   6  13   9    7.41    3.87
   6  13  10    7.74    4.13
  -7   0   0   -0.32    4.28
  -7   0  -1    1.08    3.83
  -7   0   1   -1.14    3.93
  -7   0  -2  775.02   23.23
  -7   0  -2  728.94   11.09
  -7   0  -2  823.54   26.54
  -7   0   2  771.85   25.98
  -7   0  -3   -0.03    0.72
  -7   0  -3   -0.30    3.03
  -7   0  -4  532.78   19.85
  -7   0   4  514.18   21.04
  -7   0  -4  513.81   12.34
  -7   0   5    4.74    3.86
  -7   0  -5    1.43    1.26
  -7   0  -5    7.97    4.40
   7   0  -5   10.61    6.32
  -7   0   6  132.22    8.92
  -7   0  -6  138.79   11.38
   7   0  -6  163.09   12.68
  -7   0  -6  146.82   11.15
  -7   0   6  141.36   11.40
  -7   0   7   -8.62    5.13
  -7   0  -7   -7.04    5.05
  -7   0   7   -3.10    2.92
   7   0  -7    5.39    4.51
  -7   0  -7   -0.29    3.41
  -7   0   8  428.09   15.63
   7   0  -8  444.44   20.38
  -7   0  -8  443.06   20.65
  -7   0  -8  434.43   19.73
  -7   0   8  417.79   19.96
  -7   0   9    3.66    3.93
  -7   0   9    1.71    2.06
  -7   0  -9    6.14    5.19
   7   0  -9    4.03    5.39
  -7   0  -9    5.81    4.32
  -7   0  10   53.64    7.71
  -7   0  10   55.99    5.80
  -7   0 -10   53.28    7.89
   7   0 -10   55.66    8.22
  -7   0 -10   54.60    7.84
  -7   0  11    3.04    3.29
  -7   0  11   -3.56    2.54
  -7   0 -11    1.04    3.78
   7   0 -11    1.46    4.30
  -7   0 -11    0.13    4.22
  -7   0  12   94.32    7.65
   7   0 -12  100.83   10.95
  -7   0 -12   93.72   10.84
  -7   0 -12   89.37   10.20
  -7   0  12  107.83   11.24
  -7   0  13    4.61    2.70
  -7   0 -13   29.99    8.50
   7   0 -13    7.00    5.00
  -7   0 -13   23.04    7.43
  -7   0  14  626.12   19.13
   7   0 -14  642.41   27.22
  -7   0 -14  693.78   28.54
  -7   0 -14  651.57   26.61
  -7   0 -15   13.72    7.67
   7   0 -15   -0.07    4.54
  -7   0 -15   26.80    7.90
   7   0 -16  434.40   23.39
  -7   0 -16  460.90   24.05
  -7   0 -16  467.74   23.54
  -7   0 -17   13.96    6.66
   7   0 -17   -3.42    4.32
  -7   0 -17    9.82    5.08
  -7   0 -18   61.38    9.57
   7   0 -18   48.50    8.46
  -7   0 -18   76.66   10.92
  -7   0 -19    0.38    5.39
   7   0 -19    6.69    4.64
  -7   0 -19    3.97    4.66
  -7   0 -20   79.74   11.22
   7   0 -20   77.96   11.12
  -7   0 -20   80.01   11.11
  -7   0 -21   -3.27    4.08
   7   0 -21   -1.28    3.53
  -7   0 -21    1.92    3.23
   7   0 -22   41.25    8.75
  -7   0 -22   37.83    8.94
  -7   0 -22   40.19    8.63
  -7   1   0    0.19    0.31
  -7   1   0   -0.64    0.47
  -7   1   0   -5.96    5.01
  -7  -1   0   -3.29    4.13
  -7   1  -1  224.59    6.27
  -7   1  -1  216.83    6.24
  -7   1  -1  232.06   12.00
  -7   1  -1  239.96   15.05
  -7  -1  -1  231.58   14.40
  -7   1   1  231.97   14.25
  -7  -1   1  216.31   13.83
  -7   1  -2  384.26    9.53
  -7  -1  -2  363.50    7.12
  -7   1  -2  418.78   16.23
  -7   1  -2  433.05   19.84
  -7  -1  -2  394.82   18.65
  -7   1   2  408.24   19.11
  -7  -1   2  407.08   18.44
  -7  -1  -2  415.40   17.52
  -7   1  -3  131.18    6.11
  -7  -1  -3  125.45    5.25
  -7  -1  -3  144.73   10.78
  -7   1  -3  131.74    9.35
  -7   1   3  122.13   10.43
  -7  -1   3  112.18    9.84
  -7  -1   4   70.71    7.67
  -7   1  -4   86.97    5.50
  -7  -1  -4   88.72    5.04
  -7  -1  -4   85.08    8.51
  -7   1  -4   89.55    8.20
  -7   1   4   76.28    7.95
  -7   1   5   11.99    5.47
  -7  -1   5    9.22    4.67
  -7  -1  -5   -1.34    1.23
  -7   1  -5    1.35    3.55
  -7  -1  -5    0.92    3.51
  -7   1  -5    2.11    3.38
   7   1  -5   13.30    6.27
  -7  -1  -6  318.12   16.80
  -7  -1   6  339.61   14.92
  -7   1   6  334.00   12.97
   7   1  -6  366.73   18.11
  -7   1  -6  350.72   17.84
   7  -1  -6  339.54   18.17
  -7   1  -6  338.38   16.00
  -7   1   6  342.15   18.03
  -7  -1   6  357.23   17.83
  -7   1   7    5.37    3.53
  -7  -1   7    9.49    3.99
  -7  -1   7   12.63    3.44
  -7   1   7    7.97    2.38
  -7  -1  -7    7.93    4.05
  -7   1  -7    5.79    4.11
   7   1  -7   13.49    5.04
   7  -1  -7    8.54    5.09
  -7  -1  -7    6.88    3.99
  -7   1  -7   14.07    4.09
  -7  -1   8  285.03   13.70
  -7   1   8  280.91   11.67
   7   1  -8  328.34   17.61
   7  -1  -8  296.26   17.23
  -7  -1  -8  297.02   17.01
  -7   1  -8  327.48   17.66
  -7  -1  -8  284.18   16.13
  -7   1  -8  294.11   15.63
  -7   1   8  294.44   17.04
  -7  -1   8  278.46   16.34
  -7   1   9  234.27   10.60
  -7  -1   9  238.34   12.45
   7   1  -9  245.54   15.90
   7  -1  -9  253.20   16.19
  -7  -1  -9  251.80   15.99
  -7   1  -9  249.36   15.87
  -7  -1  -9  226.59   14.68
  -7   1  -9  240.24   14.25
  -7   1   9  244.39   15.58
  -7  -1   9  226.41   14.99
  -7   1  10   19.73    5.40
  -7  -1  10   17.91    5.04
  -7   1  10   17.10    3.05
  -7  -1  10   20.83    4.38
  -7  -1 -10   10.30    4.19
  -7   1 -10   17.74    5.52
   7   1 -10   22.61    5.99
   7  -1 -10   12.84    5.20
  -7  -1 -10   21.18    5.83
  -7   1 -10   18.36    5.08
  -7   1  11  246.87   10.80
  -7  -1  11  240.20   12.57
   7   1 -11  249.62   16.56
   7  -1 -11  235.86   16.09
  -7  -1 -11  234.87   15.99
  -7   1 -11  293.27   17.94
  -7  -1 -11  262.18   16.72
  -7   1 -11  251.41   15.67
  -7   1  11  233.28   16.14
  -7  -1  11  230.84   15.58
  -7   1  12  410.30   13.90
  -7  -1  12  411.31   16.58
   7   1 -12  452.12   22.04
   7  -1 -12  411.24   21.29
  -7  -1 -12  476.52   22.85
  -7   1 -12  412.88   21.52
  -7  -1 -12  414.98   21.16
  -7   1 -12  438.44   20.84
  -7   1  12  392.42   21.05
  -7  -1  12  396.32   20.46
  -7  -1  13   11.99    3.74
  -7  -1 -13   20.57    7.69
  -7   1 -13   12.79    5.93
   7   1 -13   12.21    4.51
   7  -1 -13   10.27    5.51
  -7  -1 -13    8.76    4.79
  -7   1 -13   20.09    5.99
  -7  -1  14   80.54    7.57
  -7  -1 -14   87.17   10.91
  -7   1 -14   77.67    9.98
   7   1 -14   65.38    9.17
   7  -1 -14   55.36    8.51
  -7   1 -14   93.69   10.45
  -7  -1 -14   84.03   10.23
  -7  -1  15   -1.99    2.39
  -7   1 -15    4.25    4.63
  -7  -1 -15    3.00    3.86
   7   1 -15   -9.46    5.85
   7  -1 -15   -7.43    5.89
  -7  -1 -15   -2.03    4.30
  -7   1 -15    1.58    3.74
  -7  -1  16   -0.15    1.90
  -7  -1 -16    0.96    4.09
  -7   1 -16   -0.03    4.24
   7   1 -16   -6.28    5.26
   7  -1 -16   -5.07    5.76
  -7  -1 -16   -5.03    4.65
  -7   1 -16   -1.37    3.45
  -7  -1 -17   10.23    5.58
  -7   1 -17    4.13    4.31
   7   1 -17    1.85    3.95
   7  -1 -17    4.80    4.32
  -7  -1 -17   10.50    5.16
  -7   1 -17    3.39    3.71
  -7  -1 -18    9.46    5.53
  -7   1 -18    6.62    5.63
   7   1 -18    1.98    4.41
   7  -1 -18   -2.68    4.89
  -7  -1 -18    6.24    4.80
  -7   1 -18    1.16    3.91
  -7  -1 -19    8.88    5.30
  -7   1 -19    4.52    3.43
   7   1 -19   12.68    5.96
   7  -1 -19   -2.79    5.05
  -7  -1 -19    6.15    5.23
  -7   1 -19   14.91    6.00
  -7  -1 -20    2.53    4.41
  -7   1 -20    1.36    4.31
   7   1 -20    6.28    4.98
   7  -1 -20   -2.25    4.13
  -7  -1 -20    6.75    5.76
  -7   1 -20    0.67    3.59
  -7  -1 -21   -1.88    4.08
  -7   1 -21    7.05    5.78
   7   1 -21    7.35    5.33
   7  -1 -21    4.82    3.91
  -7  -1 -21   10.02    5.63
  -7   1 -21   -4.52    5.33
  -7  -1 -22    1.92    4.67
  -7   1 -22   -1.75    3.73
   7   1 -22    4.42    4.53
   7  -1 -22    5.92    3.96
  -7  -1 -22   10.35    5.86
  -7   1 -22    1.72    4.52
  -7  -1 -23   -5.26    5.18
  -7   2   0    0.26    0.92
  -7   2   0   -9.85    5.90
  -7  -2   0   -4.99    4.87
  -7   2  -1  380.57   10.24
  -7   2   1  374.43    8.63
  -7   2  -1  375.19   14.50
  -7   2  -1  399.64   19.21
  -7  -2  -1  408.84   18.30
  -7   2   1  419.60   19.25
  -7  -2   1  385.11   17.76
  -7   2  -2   88.20    5.49
  -7  -2  -2   71.85    3.44
  -7   2   2   76.39    3.59
  -7   2  -2   88.86    7.48
  -7   2  -2   84.45    9.85
  -7  -2  -2   87.79    9.23
  -7   2   2   81.44    9.11
  -7  -2   2   76.32    8.25
  -7  -2  -3   69.99    4.09
  -7  -2  -3   60.78    7.25
  -7   2  -3   65.37    6.83
  -7   2  -3   71.77    9.11
  -7  -2  -3   79.55    8.81
  -7   2   3   61.61    2.97
  -7   2   3   61.81    7.66
  -7  -2   3   56.75    6.88
  -7  -2   4   10.84    4.04
  -7  -2  -4    9.36    4.76
  -7   2   4    4.06    0.85
  -7   2  -4    9.64    4.36
  -7   2  -4   10.07    3.63
  -7  -2  -4    4.87    1.56
  -7   2   4   -2.97    4.80
  -7   2   5  873.89   10.81
  -7  -2   5  942.54   26.27
  -7  -2  -5  940.74   18.32
  -7   2  -5  974.96   28.90
   7   2  -5  997.09   29.39
  -7  -2  -5  944.23   29.08
  -7   2  -5  972.22   25.78
  -7   2   5 1028.61   30.71
  -7  -2   5  969.96   28.42
  -7  -2  -5  951.71   28.62
  -7   2   6   34.03    6.87
  -7  -2   6   24.66    5.45
  -7  -2   6   36.63    5.95
  -7   2  -6   38.76    7.37
  -7  -2  -6   32.10    6.33
  -7  -2  -6   35.06    6.92
   7   2  -6   48.74    8.25
   7  -2  -6   52.27    9.40
  -7   2  -6   44.08    6.32
  -7  -2   7  195.90   11.90
  -7   2   7  179.14    8.71
   7   2  -7  179.98   13.41
   7  -2  -7  195.32   14.34
  -7   2  -7  172.40   13.02
  -7  -2  -7  179.35   13.21
  -7   2  -7  185.77   12.10
  -7   2   7  172.55   13.19
  -7  -2   7  184.34   13.01
  -7  -2  -7  192.67   12.56
  -7   2   8   37.75    6.30
  -7  -2   8   29.94    5.70
  -7   2   8   35.15    3.93
  -7  -2   8   28.67    5.23
  -7  -2  -8   28.22    5.77
  -7   2  -8   35.20    6.85
  -7  -2  -8   34.75    5.77
   7   2  -8   37.06    6.79
   7  -2  -8   39.38    7.69
  -7  -2  -8   38.62    6.53
  -7   2  -8   34.61    5.79
   7  -2   8   29.23    2.76
  -7   2   9   -4.13    3.75
  -7  -2   9   -1.04    3.43
  -7   2   9    4.10    1.94
  -7  -2   9    3.68    2.50
  -7  -2  -9   -3.18    5.57
  -7  -2  -9    0.10    2.75
  -7   2  -9    8.53    4.93
   7   2  -9    7.26    5.05
   7  -2  -9    2.11    4.21
  -7  -2  -9    6.96    4.13
  -7   2  -9    2.33    3.03
  -7   2  10  256.81    9.79
  -7  -2  10  271.13   14.09
   7   2 -10  256.66   16.07
   7  -2 -10  233.14   15.93
  -7  -2 -10  246.72   16.16
  -7   2 -10  290.97   17.37
  -7  -2 -10  252.94   16.22
  -7   2 -10  272.38   15.47
  -7   2  10  248.23   16.11
  -7  -2  10  265.35   15.96
  -7  -2 -10  249.29   14.42
  -7  -2  11   78.06    7.78
  -7   2 -11   92.79   10.41
  -7  -2 -11   77.33    9.52
  -7  -2 -11   83.82   10.13
   7   2 -11   85.89    9.84
   7  -2 -11   82.03   10.10
  -7   2 -11   85.63    9.60
  -7   2  11   79.22    9.93
  -7  -2  11   79.27    9.18
  -7  -2 -11   90.55    9.15
  -7   2  12   19.27    5.17
  -7  -2  12   26.62    5.01
  -7  -2 -12   19.76    4.55
  -7  -2 -12   13.91    5.44
  -7   2 -12   28.45    6.63
   7   2 -12   20.42    5.16
   7  -2 -12   22.49    6.33
  -7  -2 -12   28.88    6.62
  -7   2 -12   28.15    6.40
  -7  -2  13  187.60   12.20
   7   2 -13  172.70   13.90
   7  -2 -13  183.59   14.72
  -7  -2 -13  188.33   14.92
  -7   2 -13  199.01   15.38
  -7  -2 -13  200.38   15.30
  -7   2 -13  200.92   14.57
  -7  -2 -13  167.99   11.68
  -7  -2  14    1.06    2.15
  -7  -2 -14    7.26    3.04
  -7  -2 -14    3.23    4.29
  -7   2 -14    0.90    4.00
   7   2 -14   -3.80    5.00
   7  -2 -14   -2.82    4.48
  -7  -2 -14    5.11    3.70
  -7   2 -14    5.66    4.20
  -7  -2  15   41.33    6.10
   7   2 -15   21.05    5.79
  -7  -2 -15   40.91    5.95
  -7  -2 -15   38.31    7.76
  -7   2 -15   42.77    8.14
   7  -2 -15   38.86    7.71
  -7  -2 -15   52.19    8.60
  -7   2 -15   41.74    7.12
  -7  -2  16   89.81    8.81
   7  -2 -16   96.37   11.61
  -7  -2 -16   87.31   11.00
  -7   2 -16   97.00   11.72
   7   2 -16   86.83   10.67
  -7   2 -16   95.69   11.13
  -7  -2 -16   96.42    9.10
  -7  -2 -16   97.54   11.95
  -7  -2  17   39.45    6.10
  -7  -2 -17   39.64    8.28
  -7   2 -17   39.81    7.85
   7   2 -17   44.72    8.36
   7  -2 -17   35.53    7.20
  -7  -2 -17   38.74    8.55
  -7   2 -17   39.47    7.48
  -7  -2  18    3.96    3.17
  -7  -2 -18    2.74    5.01
  -7   2 -18    7.49    5.94
   7   2 -18   19.60    7.07
   7  -2 -18   -6.05    4.54
  -7  -2 -18    6.24    5.92
  -7   2 -18    3.75    4.26
   7   2 -19  186.85   16.45
   7  -2 -19  176.55   16.34
  -7  -2 -19  197.20   17.31
  -7   2 -19  178.93   16.42
  -7  -2 -19  171.79   16.28
  -7   2 -19  191.17   16.24
   7   2 -20  125.80   13.94
   7  -2 -20  116.75   13.55
  -7  -2 -20  121.65   14.25
  -7   2 -20  133.72   14.73
  -7  -2 -20  124.93   14.27
  -7   2 -20  105.72   12.81
  -7  -2 -21    8.25    5.50
  -7   2 -21    1.50    4.82
   7   2 -21   16.17    6.16
   7  -2 -21   -5.39    5.35
  -7  -2 -21    8.12    4.91
  -7   2 -21    6.99    4.75
  -7  -2 -22    0.56    4.22
  -7   2 -22    7.93    5.21
   7   2 -22    4.41    5.07
   7  -2 -22   -9.46    6.79
  -7  -2 -22   -2.84    4.61
  -7   2 -22    0.82    3.11
  -7  -2 -23   76.87   11.45
  -7   3   0    1.73    1.75
  -7  -3   0   -8.15    4.76
  -7   3   0    0.64    3.03
  -7  -3   0   -2.55    3.62
  -7   3  -1   42.62    4.19
  -7   3   1   41.10    3.70
  -7  -3  -1   43.29    6.48
  -7   3  -1   43.76    4.91
  -7   3  -1   48.99    7.25
  -7  -3  -1   45.11    6.59
  -7   3   1   41.96    6.90
  -7  -3   1   45.56    6.15
  -7   3  -2   16.70    3.04
  -7   3  -2   14.95    3.28
  -7   3   2   15.08    2.23
  -7   3  -2   21.29    6.33
  -7  -3  -2   19.80    5.12
  -7  -3  -2   12.49    3.50
  -7   3   2    7.50    3.73
  -7  -3   2    6.17    3.16
  -7   3  -3   15.01    3.16
  -7  -3  -3    9.49    3.47
  -7   3  -3   14.76    3.39
  -7   3  -3   19.45    6.01
  -7  -3  -3   22.91    5.77
  -7   3   3   11.53    1.82
  -7   3  -3    7.31    3.38
  -7   3   3    6.84    3.85
  -7  -3   3    5.23    3.30
  -7  -3   4   39.05    6.22
  -7  -3   4   41.12    6.14
  -7  -3  -4   38.09    6.84
  -7   3  -4   39.41    6.36
  -7  -3  -4   39.59    7.00
  -7   3   4   37.94    3.44
  -7   3  -4   45.71    5.62
  -7   3   4   35.57    6.08
  -7  -3   5  604.54   21.80
   7   3  -5  597.08   22.72
  -7   3  -5  589.20   22.09
  -7  -3  -5  582.69   23.10
  -7   3  -5  583.92   19.61
  -7   3   5  578.02   12.83
  -7   3   5  583.78   23.93
  -7  -3   5  577.19   22.04
  -7  -3  -5  597.77   23.09
  -7   3   6   11.47    5.34
  -7  -3   6    8.43    4.22
  -7   3   6    4.04    1.66
  -7  -3   6   10.89    4.65
  -7  -3  -6    5.75    4.18
  -7   3  -6   11.07    5.57
   7  -3   6    4.20    2.09
  -7  -3  -6    8.09    4.96
  -7   3  -6    3.79    3.20
  -7  -3   7   95.25    8.86
  -7   3   7   96.85    5.82
   7   3  -7   96.82   10.12
   7  -3  -7  111.86   11.45
  -7   3  -7   99.92   10.35
  -7  -3  -7  102.79   10.65
  -7   3  -7   83.14    8.12
  -7   3   7   84.52    9.63
  -7  -3   7   94.86    9.39
  -7  -3  -7   89.36    9.16
   7  -3   7   92.10    5.56
  -7   3   7   88.08    5.24
  -7   3   8   62.98    8.60
  -7   3   8   63.91    4.64
  -7  -3   8   61.74    7.53
  -7   3   8   65.34    4.50
  -7  -3   8   55.12    7.02
  -7  -3  -8   66.78    8.06
   7  -3  -8   91.94   10.35
  -7   3  -8   62.79    8.34
  -7   3  -8   63.32    7.24
   7   3  -8   67.24    8.44
  -7  -3  -8   64.58    8.51
  -7   3   9  126.95    6.79
  -7  -3   9  133.15   10.65
   7   3  -9  130.24   11.55
   7  -3  -9  116.00   11.73
  -7   3  -9  121.82   11.34
  -7  -3  -9  111.84   10.88
  -7   3  -9  120.65   10.17
  -7   3   9  122.18   11.52
  -7  -3  -9  125.77   10.75
  -7  -3   9  130.85   10.98
  -7   3  10   -1.19    3.10
  -7  -3  10   -0.53    3.48
  -7  -3  10   -1.02    2.80
  -7  -3 -10    2.28    3.08
  -7  -3 -10    2.29    4.09
  -7   3 -10    4.37    4.04
   7   3 -10    4.58    3.83
   7  -3 -10    9.33    5.83
  -7  -3 -10    8.05    4.36
  -7   3 -10    4.10    3.50
  -7  -3  11  167.49   11.83
   7   3 -11  165.92   13.11
   7  -3 -11  190.78   14.81
  -7  -3 -11  177.68   14.32
  -7   3 -11  160.96   13.54
  -7  -3 -11  189.28   14.66
  -7   3 -11  181.91   13.08
  -7  -3 -11  178.73   12.84
  -7   3  11  163.30   13.61
  -7  -3  12   97.22    9.14
   7   3 -12  103.87   10.70
   7  -3 -12  103.97   11.36
  -7  -3 -12   98.21   10.92
  -7   3 -12  106.33   11.16
  -7  -3 -12   96.07   10.79
  -7   3 -12  107.05   10.38
  -7  -3 -12  110.07   10.24
  -7   3  12   91.76   10.59
  -7  -3  13   15.78    4.24
  -7  -3 -13   23.96    5.14
  -7  -3 -13   31.57    6.69
  -7   3 -13   24.58    6.21
   7   3 -13   20.39    4.82
   7  -3 -13   23.98    5.87
  -7  -3 -13   27.22    5.85
  -7   3 -13   31.35    6.09
  -7  -3  14    0.71    2.71
  -7  -3 -14    2.04    2.81
  -7  -3 -14    2.72    3.68
  -7   3 -14    4.10    4.01
   7   3 -14   -5.74    5.11
   7  -3 -14    1.53    3.83
  -7  -3 -14    2.57    4.18
  -7   3 -14    2.35    3.11
  -7  -3  15   38.59    5.91
  -7  -3 -15   31.97    5.52
  -7  -3 -15   36.29    7.66
  -7   3 -15   40.47    7.87
   7   3 -15   30.21    6.64
   7  -3 -15   39.52    7.48
  -7  -3 -15   35.81    7.44
  -7   3 -15   35.73    6.74
  -7  -3  16    3.22    2.74
  -7  -3 -16    5.72    3.19
  -7  -3 -16    3.35    4.62
  -7   3 -16    8.87    4.95
   7   3 -16   -2.50    4.52
   7  -3 -16    2.18    3.14
  -7  -3 -16    2.06    4.46
  -7   3 -16    1.22    3.53
  -7  -3  17    6.56    3.28
  -7  -3 -17   13.82    5.64
  -7   3 -17    8.22    4.55
   7   3 -17   10.51    4.63
   7  -3 -17    4.57    4.71
  -7  -3 -17    4.75    4.58
  -7   3 -17    2.82    3.68
  -7  -3  18   -1.86    2.66
  -7  -3 -18   10.26    5.81
  -7   3 -18    4.24    4.49
   7   3 -18    9.07    5.44
   7  -3 -18    2.72    3.64
  -7  -3 -18    3.22    3.98
  -7   3 -18   -0.83    3.87
  -7  -3  19    5.16    3.28
  -7  -3 -19    0.23    3.81
  -7   3 -19    3.16    4.48
   7   3 -19    5.04    4.56
   7  -3 -19   -0.46    3.35
  -7  -3 -19   -0.24    3.27
  -7   3 -19    2.78    3.60
  -7  -3 -20    5.34    4.79
  -7   3 -20    1.38    4.20
   7   3 -20    2.60    3.58
   7  -3 -20   -5.98    5.08
  -7  -3 -20   -0.10    4.53
  -7   3 -20    0.99    3.11
  -7  -3 -21    2.64    3.56
   7   3 -21    4.80    4.20
  -7   3 -21    9.36    5.80
   7  -3 -21   -3.66    5.28
  -7  -3 -21    6.81    4.59
  -7   3 -21   -2.76    3.53
  -7  -3 -22   -3.30    5.03
   7   3 -22    4.35    4.68
   7  -3 -22   -8.74    5.23
  -7   3 -22    4.38    4.89
  -7  -3 -23   -1.53    3.68
  -7   4   0   -0.36    1.61
  -7  -4   0    1.90    3.31
  -7   4   0   -9.14    5.16
  -7  -4   0   -9.51    4.54
  -7   4  -1  137.55    8.22
  -7   4   1  132.21    7.70
  -7   4  -1  143.13    8.07
  -7   4  -1  119.00   11.00
  -7  -4  -1  126.50   10.17
  -7   4   1  115.43   10.69
  -7  -4   1  117.74    9.78
  -7  -4  -1  130.44   11.48
  -7  -4   1  132.84   11.63
  -7   4  -2  448.92   15.22
  -7   4   2  432.94   13.52
  -7   4  -2  455.94   18.40
  -7   4  -2  450.85   14.82
  -7   4  -2  441.90   20.84
  -7  -4  -2  444.60   18.78
  -7   4   2  444.16   20.70
  -7  -4   2  427.55   18.24
  -7  -4  -2  454.88   20.75
  -7  -4   2  444.12   20.88
  -7  -4   3   11.75    3.91
  -7   4  -3   12.15    3.32
  -7  -4   3   12.15    4.50
  -7  -4  -3    2.65    3.75
   7  -4   3    8.28    2.69
  -7   4  -3   10.11    3.75
  -7  -4   3    7.18    3.97
  -7   4  -3   11.30    3.16
  -7   4   3    8.17    2.26
  -7   4  -3    6.79    4.22
  -7  -4  -3   11.07    4.40
  -7   4   3   -6.87    5.87
  -7   4  -4  521.13   17.21
  -7  -4   4  551.18   21.80
  -7   4   4  509.29   14.41
  -7   4  -4  531.01   20.78
  -7   4  -4  510.91   17.26
  -7  -4  -4  528.76   20.79
  -7   4   4  514.49   22.29
  -7  -4   4  498.95   20.23
   7  -4   4  530.74   16.88
  -7  -4  -4  514.72   22.03
  -7  -4   5  135.25   11.27
   7   4  -5  119.19   10.90
  -7   4  -5  115.87   10.36
  -7   4   5  107.00    6.70
  -7  -4  -5  115.72   11.56
  -7   4  -5  114.84    8.84
  -7   4   5  132.57   11.94
  -7  -4   5  115.71   10.09
  -7  -4  -5  116.79   11.02
   7  -4   5  109.23    7.45
  -7   4   6   53.79    7.89
   7  -4   6   49.09    4.78
  -7  -4   6   46.97    6.48
  -7  -4  -6   45.52    7.15
  -7  -4   6   44.57    6.73
   7   4  -6   61.72    8.28
  -7   4  -6   54.37    7.73
  -7  -4  -6   55.76    8.12
  -7   4   6   47.76    4.43
  -7   4  -6   46.99    5.79
  -7   4   7   38.18    6.80
  -7  -4   7   36.85    5.73
   7  -4   7   42.39    4.28
  -7  -4  -7   38.88    6.61
  -7  -4   7   38.05    6.26
  -7   4  -7   37.89    6.78
  -7  -4  -7   35.52    6.85
   7   4  -7   41.41    7.07
  -7   4  -7   42.29    6.07
  -7   4   7   42.43    4.29
  -7  -4   8  121.36   10.49
   7   4  -8  128.51   11.02
   7  -4  -8  131.79   12.40
  -7   4  -8  128.79   11.55
  -7  -4  -8  135.56   12.16
  -7   4  -8  129.15    9.89
  -7  -4  -8  124.65   11.13
  -7   4   8  116.27   11.28
  -7  -4   8  121.13   10.32
  -7   4   8  128.23    7.60
  -7  -4   9  122.44   10.59
   7   4  -9  143.10   11.86
   7  -4  -9  166.58   13.78
  -7   4  -9  152.11   12.46
  -7  -4  -9  129.44   12.04
  -7   4  -9  160.44   11.41
  -7  -4  -9  153.23   12.12
  -7   4   9  143.34   12.67
  -7  -4   9  143.09   11.37
  -7   4   9  147.40    8.33
  -7   4  10   -4.25    4.52
  -7  -4  10   -1.53    3.54
  -7  -4 -10    5.49    3.22
  -7  -4  10   -1.14    3.13
  -7   4  10    2.01    1.62
  -7   4 -10    2.19    4.07
   7   4 -10   -0.39    3.40
  -7  -4 -10   -1.54    4.08
   7  -4 -10   12.29    5.61
  -7   4 -10    3.80    2.80
  -7   4  11   -2.86    4.10
  -7  -4 -11    2.35    2.86
  -7  -4  11   -3.10    3.69
  -7   4 -11   -0.47    3.34
   7   4 -11   -5.03    4.40
   7  -4 -11    4.00    4.14
  -7  -4 -11    1.89    3.16
  -7   4 -11   -0.74    2.60
  -7   4  12    4.51    3.78
  -7  -4 -12    6.53    3.45
  -7  -4  12    5.50    3.18
  -7  -4 -12    2.66    3.85
  -7   4 -12    0.99    3.59
   7   4 -12    2.86    3.60
   7  -4 -12    7.75    4.56
  -7  -4 -12    7.29    5.01
  -7   4 -12    3.32    3.00
  -7  -4  13  146.26   11.94
   7   4 -13  145.14   12.62
   7  -4 -13  148.57   13.59
  -7  -4 -13  145.44   13.31
  -7   4 -13  140.19   13.04
  -7  -4 -13  151.78   14.14
  -7   4 -13  154.35   12.52
  -7  -4 -13  148.12   12.22
  -7  -4 -14    7.29    3.60
  -7  -4  14    2.01    2.60
  -7  -4 -14    4.16    4.40
  -7   4 -14    1.81    3.82
   7   4 -14   -5.37    5.07
   7  -4 -14    1.58    3.69
  -7  -4 -14    7.83    4.23
  -7   4 -14    2.66    2.88
  -7  -4 -15   14.52    4.78
  -7  -4  15    3.87    2.72
  -7  -4 -15    7.51    3.94
  -7   4 -15    5.58    3.93
   7   4 -15    7.85    4.19
   7  -4 -15    5.39    3.96
  -7  -4 -15    6.03    5.24
  -7   4 -15    5.21    3.77
  -7  -4  16   68.49    8.64
  -7  -4 -16   60.78    9.31
  -7   4 -16   71.16   10.48
   7   4 -16   64.78    9.23
   7  -4 -16   67.45    9.64
  -7  -4 -16   79.03   10.59
  -7   4 -16   71.83    9.68
  -7  -4 -16   70.32    8.56
  -7  -4  17   39.78    6.98
  -7  -4 -17   43.74    6.83
  -7  -4 -17   36.66    7.80
  -7   4 -17   47.86    8.80
   7   4 -17   44.61    8.02
   7  -4 -17   50.71    8.59
  -7  -4 -17   41.55    8.81
  -7   4 -17   46.22    8.14
  -7  -4  18   44.62    7.47
  -7  -4 -18   47.72    8.62
  -7   4 -18   46.04    9.06
   7   4 -18   48.11    8.53
   7  -4 -18   53.50    8.94
  -7  -4 -18   52.37    9.28
  -7   4 -18   53.59    8.96
  -7  -4  19   32.04    6.32
  -7  -4 -19   40.58    8.65
  -7   4 -19   27.44    7.39
   7   4 -19   30.96    7.46
   7  -4 -19   26.22    6.84
  -7  -4 -19   34.56    8.30
  -7   4 -19   30.81    7.00
  -7  -4  20   65.54    8.71
  -7  -4 -20   85.85   11.60
   7   4 -20   86.45   11.41
  -7   4 -20   57.63    9.84
   7  -4 -20   89.02   12.02
  -7  -4 -20   77.44   11.49
  -7   4 -20   65.32   10.15
  -7  -4  21   -2.52    2.80
  -7  -4 -21   13.48    6.07
   7   4 -21   10.65    4.91
  -7   4 -21    6.05    4.17
   7  -4 -21   -4.42    4.93
  -7  -4 -21    6.02    4.76
  -7   4 -21    6.19    4.29
  -7  -4 -22    4.75    4.59
   7  -4 -22   -0.28    3.29
  -7   4 -22    2.07    3.71
   7   5   0    1.54    1.48
  -7  -5   0   -2.56    4.00
   7  -5   0   -4.84    3.52
  -7   5   0    0.89    1.90
  -7   5   0   -3.08    4.05
  -7  -5   0    1.03    2.87
  -7  -5  -1    3.76    3.34
   7   5   1    6.28    1.94
  -7   5  -1    7.81    3.00
  -7  -5   1    1.00    2.87
  -7   5   1    5.59    2.66
   7  -5   1    1.51    2.57
  -7   5  -1    5.47    1.79
   7  -5  -1    1.65    2.92
  -7   5  -1    5.01    4.15
  -7  -5  -1    1.04    2.49
  -7   5   1   -3.10    3.87
  -7  -5   1   -0.47    3.27
  -7  -5   2    4.89    2.31
  -7  -5  -2    5.51    3.60
  -7   5  -2    3.71    2.29
  -7  -5   2    7.18    4.26
   7   5   2    5.93    1.88
  -7  -5   2    5.71    3.71
  -7   5  -2    0.45    2.40
  -7   5   2    3.98    2.00
  -7   5  -2    6.98    2.37
   7  -5   2    2.84    2.12
  -7   5  -2    8.01    4.79
  -7  -5  -2    6.58    3.23
  -7   5   2    0.64    4.28
   7  -5   3   49.00    5.80
   7   5   3   43.24    4.50
  -7  -5  -3   42.54    7.00
  -7   5  -3   45.73    5.42
  -7   5   3   47.01    5.04
  -7  -5   3   53.07    7.68
  -7  -5   3   50.68    7.60
  -7   5  -3   44.73    6.63
  -7   5  -3   50.64    5.11
  -7  -5   3   54.59    6.70
  -7   5  -3   59.60    8.50
  -7  -5  -3   49.46    7.06
  -7   5   3   31.36    5.76
  -7   5   4   15.89    4.66
  -7  -5   4   14.83    4.06
  -7  -5  -4   18.50    4.63
  -7   5  -4   21.92    4.16
  -7  -5   4   18.86    5.10
   7  -5   4   21.38    4.19
  -7   5  -4   18.21    4.45
   7   5   4   21.49    3.38
  -7  -5   4   16.87    4.69
  -7   5  -4   22.53    5.81
  -7   5  -4   12.40    2.81
  -7   5   4   17.56    3.36
  -7  -5  -4   22.72    5.15
  -7   5   5    9.42    4.65
  -7  -5   5    7.70    3.17
  -7   5  -5   10.14    3.56
   7  -5   5    9.70    2.87
  -7  -5  -5    8.54    3.92
  -7  -5   5   14.55    4.96
  -7   5  -5   11.36    3.92
  -7  -5   5    6.54    3.56
   7   5  -5   20.92    5.40
  -7   5  -5    3.91    2.01
  -7   5   5    9.64    2.58
  -7  -5   6   82.36    9.22
   7  -5   6   91.76    6.99
   7   5  -6   94.54    9.64
  -7   5  -6   82.62    8.82
  -7   5   6   84.30    6.82
  -7   5  -6   73.71    6.86
  -7  -5  -6   81.21    9.42
  -7   5   6   86.00    9.77
  -7  -5   6   83.94    8.49
  -7  -5   7   96.35    9.77
   7   5  -7  106.10   10.04
  -7   5  -7  102.90   10.00
  -7  -5  -7   99.04   11.01
  -7   5  -7  101.11    8.42
  -7   5   7   98.25    7.30
  -7  -5  -7  104.76   10.75
  -7   5   7   98.15   10.63
  -7  -5   7   90.34    8.62
  -7   5   8   -3.76    4.00
  -7  -5   8   -2.71    3.35
  -7  -5  -8   -0.37    3.20
  -7   5   8   -0.60    1.83
  -7  -5   8   -3.46    3.45
  -7   5  -8   -0.91    3.24
  -7  -5  -8    1.19    3.75
   7   5  -8    1.29    3.23
  -7   5  -8    0.52    2.29
  -7   5   9   -4.32    4.11
  -7  -5   9   -4.30    3.31
  -7  -5  -9    1.59    2.78
  -7   5   9    0.46    1.28
  -7  -5   9   -1.38    3.56
  -7   5  -9   -2.43    3.38
   7   5  -9    0.72    2.92
  -7  -5  -9    1.12    3.32
   7  -5  -9    8.36    5.30
  -7   5  -9   -0.33    2.18
  -7   5  10    5.73    2.86
  -7  -5 -10    4.09    3.30
  -7  -5  10    8.43    3.68
  -7   5  10    3.76    1.91
  -7   5 -10    2.13    3.01
   7   5 -10    1.51    3.12
  -7  -5 -10    9.05    4.61
   7  -5 -10    5.17    4.56
  -7   5 -10    3.09    3.03
  -7   5  11   22.49    5.68
  -7  -5 -11   27.77    5.84
  -7  -5  11   20.51    5.00
  -7   5 -11   21.30    5.57
   7   5 -11   16.98    4.94
  -7  -5 -11   25.53    6.86
   7  -5 -11   26.40    6.55
  -7   5 -11   22.78    5.11
  -7  -5 -12   24.35    5.56
  -7   5  12   18.38    5.28
  -7  -5  12   21.45    5.38
  -7   5 -12   19.55    5.67
   7   5 -12   25.40    5.74
  -7  -5 -12   26.64    6.47
   7  -5 -12   31.15    6.98
  -7   5 -12   25.58    5.42
  -7  -5 -13    2.37    2.80
  -7  -5  13   -0.22    2.79
  -7   5 -13   -2.52    4.04
   7   5 -13   -1.59    3.24
   7  -5 -13    3.29    4.64
  -7  -5 -13   -0.59    4.46
  -7   5 -13   -4.29    3.56
  -7  -5 -14   13.65    4.83
  -7  -5  14    6.99    3.98
  -7   5 -14    6.50    4.50
   7   5 -14   10.16    3.98
   7  -5 -14    8.97    4.80
  -7  -5 -14   11.78    5.41
  -7   5 -14    6.33    3.18
  -7  -5 -15   15.99    4.92
  -7  -5  15    1.57    2.72
  -7  -5 -15    9.97    4.82
  -7   5 -15   16.36    5.75
   7   5 -15    9.38    4.79
   7  -5 -15   17.57    5.98
  -7  -5 -15   14.60    5.61
  -7   5 -15   19.80    5.53
  -7  -5 -16   26.43    6.24
  -7  -5  16   19.66    5.11
  -7   5 -16   28.65    7.08
   7   5 -16   20.36    5.67
   7  -5 -16   22.62    6.56
  -7  -5 -16   29.16    7.24
  -7   5 -16   26.51    6.00
  -7  -5 -16   19.67    6.01
  -7  -5 -17    6.98    3.53
  -7  -5  17    3.38    3.20
  -7  -5 -17   -4.37    4.81
  -7   5 -17    4.02    4.71
   7   5 -17    4.08    3.06
   7  -5 -17   -0.89    3.69
  -7  -5 -17    5.87    5.14
  -7   5 -17    3.63    4.10
  -7  -5 -18    4.60    3.39
  -7  -5  18    5.03    4.13
  -7  -5 -18    4.28    4.27
  -7   5 -18    5.75    4.26
   7   5 -18    6.17    4.41
   7  -5 -18    4.75    4.79
  -7  -5 -18    4.04    4.17
  -7   5 -18    5.30    4.17
  -7  -5  19   -1.51    3.05
  -7  -5 -19   -1.66    4.09
   7   5 -19    2.50    3.57
  -7   5 -19    3.10    4.48
   7  -5 -19   -0.13    3.65
  -7  -5 -19   -4.05    4.51
  -7   5 -19   -0.76    3.81
  -7  -5  20    0.86    2.89
  -7  -5 -20    5.62    4.22
   7   5 -20    7.73    4.33
  -7   5 -20    2.28    3.72
   7  -5 -20    6.46    4.65
  -7  -5 -20    6.78    4.20
  -7   5 -20    3.21    3.07
  -7  -5  21   -2.72    3.35
  -7  -5 -21    0.69    4.35
   7   5 -21    3.89    3.90
   7  -5 -21   -2.44    3.99
  -7   5 -21   -2.76    3.30
  -7  -5  22   11.40    4.10
  -7  -5 -22   13.63    5.44
  -7   5 -22   15.36    5.56
   7  -6   0    4.47    3.77
  -7  -6   0    3.89    4.60
  -7   6   0    0.76    2.11
  -7   6   0   -3.61    3.67
  -7  -6   0   -3.45    2.80
  -7   6  -1  304.27   14.71
  -7   6   1  295.00   14.12
  -7  -6   1  307.65   18.39
  -7   6  -1  287.84   17.31
  -7  -6  -1  307.82   14.95
  -7   6   1  280.37   17.11
  -7  -6   1  312.24   15.16
  -7  -6  -1  291.45   17.97
  -7  -6   1  325.84   18.81
   7  -6  -1  304.41   16.41
   7   6   1  310.96   11.91
   7  -6   1  305.56   15.47
   7  -6   2  253.08   13.98
  -7   6  -2  241.70   13.21
  -7  -6   2  278.03   17.10
  -7   6   2  247.13   12.73
  -7   6  -2  252.95   13.75
  -7   6  -2  253.75   16.41
  -7  -6  -2  251.56   13.77
  -7   6   2  230.26   15.51
  -7  -6  -2  254.79   16.62
  -7  -6   2  266.66   13.98
   7  -6  -2  273.17   15.63
  -7  -6   2  255.73   16.93
   7   6   2  261.63   11.33
  -7  -6   3    1.74    2.29
   7  -6   3    1.30    2.83
  -7  -6  -3    4.85    3.38
  -7   6  -3   -0.53    2.47
  -7  -6   3    6.37    4.86
   7   6   3    0.39    1.59
  -7  -6   3   -0.61    3.27
  -7   6  -3    4.22    3.55
   7  -6  -3   -1.76    3.13
  -7   6   3   -4.56    3.46
  -7   6  -3   -4.54    4.48
  -7  -6  -3   -3.21    3.24
  -7   6   3  -10.36    6.06
  -7   6   4    4.30    4.06
  -7  -6   4   -0.63    2.30
  -7  -6  -4   -1.45    3.38
  -7   6  -4    0.25    2.31
  -7  -6   4   -1.89    3.54
   7   6   4   -1.45    1.72
   7  -6  -4   -3.39    4.22
  -7  -6   4   -0.58    3.07
  -7   6  -4    1.88    3.01
  -7   6  -4   -0.98    1.71
   7  -6   4    4.25    2.80
  -7   6   4   -1.11    1.78
  -7   6  -4   -0.04    3.41
  -7  -6  -4   -1.22    2.85
   7   6   5  301.40   13.52
  -7   6  -5  279.64   14.81
  -7  -6   5  314.11   17.92
   7  -6   5  290.19   13.29
  -7   6   5  289.45   13.62
  -7   6  -5  296.11   16.20
  -7   6  -5  277.35   12.40
  -7   6  -5  282.97   17.58
  -7  -6  -5  264.52   14.63
   7  -6  -5  295.58   17.04
  -7  -6  -5  293.57   18.13
  -7   6   5  285.27   17.40
  -7  -6   5  290.49   14.90
  -7  -6   5  261.86   17.04
  -7   6   6   -1.31    2.56
  -7  -6   6   -2.02    2.83
  -7  -6  -6    6.44    4.19
  -7   6  -6    3.20    3.18
  -7  -6   6    3.73    3.42
   7   6   6    2.71    2.36
  -7   6  -6    5.74    3.42
  -7  -6   6   -1.68    3.67
   7  -6  -6   -5.76    4.83
   7   6  -6    8.58    4.21
  -7   6  -6    2.72    2.58
  -7   6   6    0.56    1.79
  -7  -6  -7   71.40    9.11
   7   6   7   75.43    7.31
  -7  -6   7   74.46    9.01
   7   6  -7   78.95    8.71
  -7   6  -7   71.05    8.29
  -7   6   7   72.83    6.97
  -7  -6   7   57.04    8.10
  -7   6  -7   81.61    7.62
  -7   6   7   73.54    9.24
  -7  -6   7   71.00    7.68
  -7   6   8    9.14    4.19
  -7   6   8    7.30    2.66
  -7  -6  -8    7.49    4.14
  -7  -6   8   10.44    4.09
   7   6   8    6.32    2.58
  -7   6  -8    8.07    3.84
  -7  -6  -8   15.91    5.73
   7   6  -8    8.85    4.29
  -7   6  -8   10.00    3.34
  -7  -6  -9   43.50    7.48
  -7   6   9   39.82    7.06
  -7  -6   9   40.78    7.18
  -7   6  -9   54.15    8.03
  -7  -6  -9   57.53    9.09
   7   6  -9   44.75    6.77
  -7   6  -9   49.99    6.68
  -7   6   9   46.30    5.73
  -7  -6  10  117.67   11.74
   7   6 -10  119.23   10.84
   7  -6 -10  122.12   12.18
  -7   6 -10  121.80   11.67
  -7  -6 -10  121.03   12.70
  -7  -6 -10  125.64   12.05
  -7   6 -10  114.97    9.87
  -7   6  10  121.40    9.37
  -7   6  10  109.89   11.59
  -7  -6 -11   24.23    6.45
  -7   6  11   20.17    5.48
  -7  -6  11   14.36    5.04
  -7   6 -11   14.26    5.28
   7   6 -11   11.59    4.70
  -7  -6 -11   19.26    6.63
   7  -6 -11   16.42    5.96
  -7   6 -11   12.14    4.08
  -7  -6  12  237.47   16.38
   7   6 -12  251.56   16.32
   7  -6 -12  270.41   18.20
  -7   6 -12  264.41   17.48
  -7  -6 -12  269.21   19.06
  -7  -6 -12  263.52   17.39
  -7   6 -12  244.48   15.26
  -7   6  12  237.53   17.11
  -7  -6  13   71.79    9.64
   7   6 -13   76.22    9.35
   7  -6 -13   91.57   11.25
  -7   6 -13   83.28   10.75
  -7  -6 -13   79.45   11.01
  -7  -6 -13   85.07   10.20
  -7   6 -13   86.15    9.64
  -7  -6 -14   10.98    5.16
  -7  -6  14    1.39    2.78
  -7   6 -14    8.48    4.87
   7   6 -14    1.48    3.13
  -7  -6 -14   -0.66    4.03
   7  -6 -14    1.49    3.74
  -7   6 -14   -0.75    2.70
  -7  -6 -15    6.52    4.10
  -7  -6  15    1.94    3.32
  -7   6 -15    4.89    3.83
   7   6 -15    0.82    3.01
   7  -6 -15   11.26    5.43
  -7  -6 -15    7.90    5.77
  -7   6 -15    3.77    3.19
  -7  -6 -16   56.59    8.62
  -7  -6  16   57.30    8.66
  -7   6 -16   53.50    8.94
   7   6 -16   54.55    8.60
   7  -6 -16   63.31    9.93
  -7  -6 -16   62.51    9.81
  -7   6 -16   61.92    8.90
  -7  -6 -17   15.06    4.79
  -7  -6  17   25.48    5.89
  -7   6 -17   15.75    5.81
   7   6 -17   12.13    4.63
   7  -6 -17   15.33    5.53
  -7  -6 -17   18.43    6.44
  -7   6 -17   12.09    4.62
  -7  -6 -18   16.84    5.33
  -7  -6  18    5.16    3.14
  -7   6 -18    8.67    4.54
   7   6 -18   10.42    4.68
   7  -6 -18    5.20    4.02
  -7  -6 -18    5.56    4.51
  -7   6 -18    4.90    3.74
  -7  -6  19   18.36    5.33
  -7  -6 -19   18.31    6.75
   7   6 -19   16.01    5.55
  -7   6 -19   12.75    6.02
   7  -6 -19   17.47    5.78
  -7  -6 -19   19.47    6.38
  -7   6 -19   20.75    5.79
  -7  -6  20   33.29    6.94
  -7  -6 -20   42.92    8.54
   7   6 -20   38.66    8.22
  -7   6 -20   36.43    8.55
   7  -6 -20   27.48    7.43
  -7   6 -20   29.42    7.03
  -7  -6  21    1.45    3.13
  -7  -6 -21    7.89    5.08
   7   6 -21   -0.68    3.12
   7  -6 -21   -2.43    3.80
  -7   6 -21    0.22    3.63
  -7  -6  22   12.65    5.20
  -7  -6 -22   14.48    6.03
  -7  -6  23   12.89    5.09
  -7  -7   0    1.32    2.37
  -7  -7   0   -2.19    3.41
  -7  -7   0   -2.51    3.65
  -7   7   0   -2.17    2.64
   7  -7   0    1.66    2.71
  -7   7   0   -2.14    4.09
  -7  -7   1    3.66    2.52
   7  -7   1    1.76    2.71
  -7  -7  -1   -0.02    3.59
  -7  -7   1    1.10    3.37
  -7  -7   1   -2.64    4.92
   7  -7  -1    0.90    3.14
  -7   7  -1    2.35    2.82
  -7   7   1    1.52    2.17
  -7   7  -1   -0.11    3.42
  -7   7   1   -2.76    3.85
  -7  -7  -1   -1.83    3.07
  -7  -7   2   39.14    5.48
  -7  -7  -2   40.86    7.51
  -7   7  -2   47.39    6.97
   7  -7  -2   34.95    6.25
  -7  -7   2   46.03    7.97
  -7  -7   2   43.27    7.86
  -7   7  -2   38.17    5.83
  -7   7   2   41.47    5.84
   7  -7   2   43.41    6.85
  -7   7  -2   47.20    7.59
  -7  -7  -2   33.91    5.10
  -7   7   2   34.23    6.20
  -7   7  -3   87.56    8.84
  -7  -7   3   96.39   10.82
   7  -7   3   94.38    9.00
  -7   7   3   95.24    8.67
  -7   7  -3   92.53    8.52
  -7  -7  -3   89.89   10.54
  -7   7  -3  105.39   10.95
  -7  -7  -3   79.66    7.85
  -7   7   3   96.86   10.31
  -7  -7   3   91.53    8.15
  -7  -7   3   90.52   10.58
   7   7   3   90.78    7.65
   7  -7  -3   96.43   10.09
  -7   7   4    1.04    3.90
  -7  -7   4   -1.04    1.90
  -7  -7  -4   -2.44    4.03
   7   7   4    0.21    1.69
  -7  -7   4    0.92    4.00
  -7   7  -4   -0.11    2.50
  -7  -7   4   -1.72    3.63
  -7   7  -4    2.86    2.83
  -7   7   4   -3.50    2.90
  -7   7  -4   -0.82    3.12
  -7  -7  -4    0.37    2.44
   7  -7  -4   -0.34    3.19
  -7   7   5   29.47    6.09
  -7  -7  -5   27.51    6.59
  -7  -7   5   21.41    4.12
  -7   7  -5   20.89    5.02
  -7  -7   5   19.10    4.71
   7   7   5   23.71    4.19
  -7  -7   5   22.98    5.30
  -7   7  -5   25.14    4.89
  -7   7   5   21.65    4.45
   7  -7  -5   18.81    5.25
  -7   7  -5   25.23    6.24
  -7  -7  -5   26.46    4.90
  -7   7   6   -2.77    3.73
  -7  -7  -6    2.32    4.12
  -7  -7   6   -1.11    2.27
  -7   7  -6    1.18    3.19
  -7  -7   6    2.04    3.44
   7   7   6    3.77    2.01
  -7  -7   6   -6.02    4.68
  -7   7  -6   -0.65    2.85
   7   7  -6    7.97    3.76
   7  -7  -6    0.52    3.89
  -7  -7  -6    3.48    3.11
  -7   7   6    3.39    2.50
  -7  -7  -7    8.66    4.52
  -7   7   7    3.11    2.91
  -7   7  -7    9.34    4.02
  -7  -7   7    3.48    3.32
   7   7   7    6.13    2.89
  -7  -7   7   -1.69    4.38
  -7   7  -7    7.45    3.77
   7   7  -7   12.68    4.46
   7  -7  -7    0.71    3.60
  -7   7   7    3.64    2.46
  -7   7   8   -0.72    1.84
  -7  -7  -8    6.93    4.71
  -7   7   8    3.79    3.56
  -7  -7   8   -3.19    3.49
   7   7   8    0.63    2.57
  -7   7  -8    6.60    3.81
  -7  -7   8   -3.88    4.44
   7  -7  -8   -4.46    5.26
   7   7  -8    1.01    2.80
  -7   7  -8    1.57    2.42
  -7  -7  -9   73.30    9.80
   7   7   9   69.78    8.03
  -7  -7   9   58.93    8.47
   7   7  -9   64.85    8.13
  -7   7  -9   50.78    7.48
   7  -7  -9   56.58    8.79
  -7   7   9   64.87    7.40
  -7   7  -9   58.43    6.89
  -7   7   9   70.49    9.42
  -7  -7 -10   13.08    5.52
  -7   7  10    6.72    4.12
  -7   7  10   11.89    3.70
  -7  -7  10   12.90    4.77
   7  -7 -10    7.25    3.86
   7   7  10   11.04    3.72
  -7   7 -10    8.88    4.73
  -7  -7 -10   12.79    5.78
   7   7 -10    9.54    4.11
  -7   7 -10   13.07    3.86
  -7  -7 -11   10.99    5.04
  -7   7  11    8.13    4.08
  -7  -7  11    9.91    4.68
   7  -7 -11   -2.11    4.86
   7   7  11    4.08    2.57
  -7   7 -11   19.40    5.39
   7   7 -11   13.92    4.72
  -7  -7 -11    9.38    5.77
  -7   7 -11   12.12    4.32
  -7  -7 -12   18.50    5.72
  -7  -7  12    7.65    4.88
   7  -7 -12    8.59    4.88
  -7   7 -12   15.97    5.54
   7   7 -12    7.15    3.99
  -7  -7 -12   10.50    5.13
   7  -7 -12   26.80    7.42
  -7   7 -12   11.04    4.16
  -7  -7  13  151.84   13.95
   7   7 -13  138.75   12.72
   7  -7 -13  161.28   14.62
  -7   7 -13  157.89   14.04
  -7  -7 -13  169.00   15.43
  -7  -7 -13  142.46   13.62
  -7   7 -13  156.04   12.88
   7  -7 -13  150.93   14.79
  -7  -7 -14   25.22    6.71
  -7  -7  14   25.64    6.90
   7  -7 -14   18.52    5.25
  -7   7 -14   20.73    6.31
   7   7 -14   21.74    5.80
  -7  -7 -14   28.70    7.81
   7  -7 -14   24.69    6.98
  -7   7 -14   23.17    5.44
  -7  -7 -15    5.63    4.09
  -7  -7  15    0.66    3.37
   7  -7 -15   -4.23    5.51
  -7   7 -15   -1.58    3.43
   7   7 -15   -0.45    3.09
  -7  -7 -15    5.83    5.56
   7  -7 -15    9.92    5.01
  -7   7 -15   -2.21    2.53
  -7  -7 -16   25.19    6.70
  -7  -7  16   22.05    6.44
   7  -7 -16   10.89    4.29
  -7   7 -16   11.39    5.01
   7   7 -16   12.06    4.33
  -7  -7 -16   14.33    6.31
   7  -7 -16   22.38    6.34
  -7   7 -16   23.45    5.77
  -7  -7 -17    8.61    4.36
  -7  -7  17   11.93    4.96
   7  -7 -17    7.72    4.53
  -7   7 -17   14.11    6.06
   7   7 -17   -1.76    3.99
  -7  -7 -17   13.39    5.73
   7  -7 -17    7.43    4.02
  -7   7 -17    7.55    4.06
  -7  -7 -18   -0.20    2.80
  -7  -7  18   -0.54    3.77
  -7   7 -18    2.80    4.17
   7   7 -18   -2.42    3.85
   7  -7 -18   -1.64    2.92
  -7  -7 -18   -0.98    4.07
  -7   7 -18   -0.77    3.12
  -7  -7  19   34.60    7.22
   7   7 -19   40.99    7.87
  -7   7 -19   27.56    7.70
   7  -7 -19   36.31    7.99
  -7   7 -19   30.29    7.10
  -7  -7  20   39.14    8.15
   7   7 -20   36.95    8.08
   7  -7 -20   34.60    7.67
  -7   7 -20   46.87    8.64
  -7  -7  21   28.48    7.11
   7  -7 -21   28.47    7.60
  -7   7 -21   37.70    8.40
  -7  -8   0    5.51    4.84
  -7  -8   0   -1.86    3.94
  -7   8   0   -0.98    2.76
   7  -8   0    7.31    4.15
  -7   8   0   -6.53    4.53
   7  -8  -1  290.72   17.30
  -7   8  -1  308.59   16.78
  -7  -8   1  302.54   19.08
  -7   8   1  290.92   16.19
  -7  -8  -1  301.86   19.18
   7  -8   1  289.60   16.68
  -7  -8  -1  311.99   19.63
  -7   8  -1  293.90   17.82
  -7  -8   1  267.34   18.13
  -7   8   1  284.61   17.66
  -7   8   2   28.48    6.35
   7  -8  -2   47.08    7.76
  -7  -8  -2   41.46    8.01
  -7  -8   2   46.12    8.19
  -7  -8   2   43.53    8.01
  -7  -8  -2   45.27    8.78
  -7   8  -2   42.55    6.89
  -7   8  -2   45.74    6.01
  -7   8   2   41.63    6.43
  -7   8  -2   34.51    6.63
  -7   8   3   39.25    7.13
  -7  -8  -3   41.79    7.46
  -7  -8   3   48.14    8.29
  -7  -8   3   44.76    7.94
  -7   8  -3   43.08    7.00
  -7   8  -3   39.07    5.68
  -7   8   3   36.85    5.82
   7  -8  -3   47.02    7.94
  -7   8  -3   34.90    6.34
  -7   8   4   18.80    5.42
  -7  -8  -4   19.76    5.60
  -7  -8   4   26.21    6.05
  -7  -8   4   16.24    5.60
  -7   8  -4   15.84    4.38
  -7   8  -4   23.06    4.69
   7  -8  -4   26.67    6.46
  -7   8   4   14.33    3.71
  -7   8  -4   17.22    5.16
  -7   8   5   35.64    6.72
  -7  -8  -5   24.53    6.33
   7   8   5   39.36    5.78
  -7  -8   5   40.36    7.44
  -7   8  -5   40.44    6.94
   7  -8  -5   40.27    7.35
  -7  -8   5   36.07    7.54
  -7   8  -5   32.29    5.66
  -7   8   5   47.75    6.68
  -7   8  -5   35.09    6.93
  -7  -8  -6    0.08    3.33
  -7   8   6   -0.63    3.37
   7  -8  -6   -0.80    3.75
  -7  -8   6   -2.94    4.78
  -7   8  -6    0.21    3.23
   7   8   6   -0.54    2.01
  -7  -8   6   -0.12    3.31
  -7   8  -6    2.48    3.01
  -7   8  -6    8.03    4.85
  -7   8   6    1.19    2.64
  -7  -8  -7   39.34    7.75
  -7   8   7   46.69    7.67
   7  -8  -7   42.39    7.97
  -7   8  -7   46.21    7.42
  -7  -8   7   36.72    6.93
   7   8   7   47.44    6.68
  -7  -8   7   35.92    7.17
   7   8  -7   57.39    7.33
  -7   8  -7   45.29    6.82
  -7   8  -7   41.20    7.53
  -7   8   7   39.00    6.11
  -7   8   8    1.06    2.16
  -7  -8  -8    6.10    4.78
   7  -8  -8    3.90    4.41
  -7   8   8    0.27    2.71
  -7   8  -8    8.03    4.74
  -7  -8   8   -4.01    3.48
   7   8   8   -3.26    2.73
  -7  -8   8    1.34    3.36
  -7   8  -8    1.95    3.84
   7   8  -8    7.28    3.69
   7   8   9  183.80   13.16
  -7  -8   9  184.00   15.33
  -7   8  -9  182.23   14.37
   7   8  -9  167.82   12.65
  -7   8  -9  174.07   13.51
  -7   8   9  166.73   12.49
  -7  -8  -9  179.00   15.43
  -7   8   9  171.23   14.42
   7  -8  -9  184.70   15.73
  -7  -8   9  167.53   14.57
  -7   8  10    1.08    3.41
  -7   8  10    4.76    3.32
  -7  -8  10    3.57    4.04
   7   8  10    4.87    3.59
  -7   8 -10    4.52    3.48
  -7  -8  10    3.20    3.65
   7   8 -10    3.19    3.56
   7  -8 -10    5.73    4.32
  -7  -8 -10    8.78    5.35
  -7   8  11    2.82    3.07
  -7  -8  11   12.48    5.04
   7   8  11    8.74    3.77
  -7   8 -11   10.70    4.23
   7   8 -11   12.39    4.73
   7  -8 -11   10.84    5.73
  -7  -8 -11   10.77    5.40
  -7  -8  12    5.48    3.95
   7   8  12   11.89    3.84
  -7   8 -12   10.12    4.31
  -7  -8 -12   19.67    6.84
   7   8 -12    7.22    3.55
   7  -8 -12    3.15    3.78
  -7  -8 -12   19.87    6.13
  -7  -8  13   31.48    6.86
   7   8  13   32.38    6.42
  -7   8 -13   30.73    6.48
   7   8 -13   27.83    5.99
  -7  -8 -13   32.84    7.66
   7  -8 -13   34.80    7.73
  -7  -8 -13   41.50    8.07
  -7  -8  14    1.45    3.40
  -7   8 -14    6.35    3.75
   7   8 -14    8.61    4.00
  -7  -8 -14    7.30    4.85
   7  -8 -14   22.19    6.81
   7  -8 -14    3.95    5.00
  -7   8 -14   10.01    4.06
  -7  -8 -14   13.35    5.56
  -7  -8  15   57.97    9.42
  -7   8 -15   67.95   10.11
   7   8 -15   52.16    8.26
  -7  -8 -15   60.99   10.61
   7  -8 -15   58.52    9.42
   7  -8 -15   60.37   10.33
  -7   8 -15   59.70    8.60
  -7  -8 -15   66.66   10.12
  -7  -8  16    6.31    3.95
  -7   8 -16    7.01    5.08
   7   8 -16    1.51    3.23
  -7  -8 -16    5.68    4.61
   7  -8 -16   13.73    6.13
   7  -8 -16    9.24    5.48
  -7   8 -16    7.57    4.22
  -7  -8 -16    0.98    3.12
  -7  -8  17   43.00    8.48
  -7   8 -17   39.05    8.37
   7   8 -17   44.52    7.80
   7  -8 -17   49.60    9.03
  -7   8 -17   51.27    8.64
  -7  -8 -17   50.31    8.96
  -7  -8  18    9.83    5.18
  -7   8 -18    8.18    4.81
   7   8 -18    3.80    3.64
   7  -8 -18   13.26    5.46
  -7   8 -18    8.88    4.44
  -7  -8 -18   17.62    5.78
   7   8 -19   48.57    8.93
   7  -8 -19   51.47    9.46
  -7   8 -19   54.67    9.12
  -7  -8 -19   52.14    9.35
   7   8 -20   12.86    5.08
   7  -8 -20   14.69    5.79
  -7   8 -20   16.55    6.01
  -7  -9   0   -1.28    3.43
  -7  -9   0    3.10    4.78
  -7   9   0   -4.29    3.66
  -7   9   0   -5.66    4.20
  -7   9   1   -2.61    3.83
  -7  -9  -1   -4.02    4.08
  -7  -9   1    2.67    3.71
  -7  -9   1    4.02    3.57
  -7  -9  -1    0.82    3.73
   7  -9  -1    5.51    3.91
  -7   9  -1    6.72    3.91
  -7   9   1   -0.38    2.72
  -7   9  -1    1.11    2.98
  -7   9   2    1.05    2.77
  -7  -9  -2   -3.15    4.45
  -7  -9   2    6.23    4.00
  -7  -9   2    2.29    3.86
   7  -9  -2   -0.83    3.02
  -7  -9  -2   -0.80    3.52
  -7   9  -2    4.40    3.32
  -7   9   2    0.81    2.51
  -7   9  -2   -3.97    3.99
  -7   9   3    2.55    3.04
  -7  -9  -3   -0.36    3.81
  -7  -9   3   -2.48    3.42
  -7  -9   3   -1.19    4.57
  -7  -9  -3    1.85    3.63
  -7   9  -3    6.32    4.02
  -7   9   3   -5.02    3.99
   7  -9  -3    5.34    4.26
  -7   9  -3    0.70    3.07
  -7   9   4    3.08    2.66
  -7  -9  -4    0.64    2.74
  -7  -9   4    2.21    3.47
  -7  -9   4    1.09    3.86
  -7  -9  -4    4.36    3.49
  -7   9  -4    7.07    3.67
   7  -9  -4   14.52    5.50
  -7   9   4    4.26    3.18
  -7   9  -4   11.94    4.46
  -7  -9  -5   69.05   10.18
   7  -9  -5   86.04   10.72
  -7   9  -5   73.46    9.34
  -7  -9   5   83.51   10.81
  -7   9   5   85.98    9.41
  -7   9  -5   72.25    9.35
  -7  -9   5   78.51   10.44
  -7   9   5   67.98    9.11
  -7  -9  -6    7.83    4.50
  -7   9   6    5.61    3.76
  -7  -9   6    9.93    4.67
  -7   9  -6   10.44    4.05
  -7  -9   6    4.44    3.71
  -7   9   6   10.52    3.86
  -7   9  -6   15.49    5.62
   7  -9  -6    8.73    4.64
  -7  -9  -7   36.36    7.07
  -7   9   7   37.38    6.93
  -7  -9   7   37.36    7.23
  -7   9  -7   37.01    7.16
  -7  -9   7   41.41    7.81
  -7   9  -7   41.51    6.54
   7  -9  -7   38.34    7.44
  -7   9  -7   40.62    7.82
  -7   9   7   38.39    6.44
  -7   9   8   10.13    4.13
  -7  -9   8   19.22    5.98
  -7   9  -8   10.23    4.61
  -7  -9   8   17.10    5.50
  -7   9  -8   13.76    4.65
   7  -9  -8   14.95    5.77
  -7   9  -8   13.68    5.58
  -7   9   8   15.34    4.63
  -7  -9  -8   12.86    5.45
  -7   9   9   19.38    4.88
  -7   9   9   19.17    5.60
  -7  -9   9   32.32    7.56
  -7   9  -9   21.03    6.31
   7   9   9   21.60    5.18
  -7  -9   9   25.81    6.45
   7  -9  -9   18.28    6.02
  -7   9  -9   23.09    5.30
  -7  -9  -9   27.51    7.14
  -7   9  10   15.46    4.57
  -7   9  10   10.04    4.13
  -7   9 -10   16.53    5.69
  -7  -9  10   18.48    6.05
   7  -9 -10   15.03    6.01
   7   9  10   12.10    4.05
  -7   9 -10   12.31    4.69
  -7  -9  10   11.77    4.76
  -7  -9 -10   15.44    5.86
  -7   9 -11   39.05    8.11
  -7  -9  11   35.81    7.68
   7  -9 -11   36.17    7.67
   7   9  11   36.67    6.96
  -7   9 -11   32.76    6.65
  -7  -9  11   33.98    7.14
  -7  -9 -11   50.62    9.17
  -7  -9  12    1.81    3.89
   7  -9 -12   -5.52    4.75
   7   9  12    0.20    2.43
  -7   9 -12   -0.49    3.33
  -7  -9 -12    6.24    5.15
  -7  -9  13   58.48    9.75
   7  -9 -13   42.36    8.77
   7   9  13   54.91    8.52
  -7   9 -13   42.40    7.84
  -7  -9 -13   40.09    8.73
   7  -9 -14    4.72    4.39
  -7  -9  14   -1.81    3.76
   7   9  14    3.10    3.18
  -7   9 -14    2.06    2.99
  -7  -9 -14    5.79    4.82
  -7  -9  15    1.37    4.04
  -7   9 -15   -3.02    3.90
  -7  -9 -15    9.10    4.93
  -7   9 -16    8.93    5.13
  -7  -9 -16    3.18    4.25
  -7   9 -17   85.55   11.76
  -7  -9 -17   91.51   12.34
  -7  -9 -18    3.98    4.22
  -7  10   0   -5.79    4.35
  -7 -10   0    4.31    4.29
  -7 -10   0   -1.23    3.65
  -7  10   0   -3.58    3.16
  -7  10   1   -0.18    2.40
  -7 -10  -1    1.50    3.30
  -7 -10   1    3.31    3.49
  -7 -10   1    5.71    4.36
  -7 -10  -1    0.84    4.07
  -7  10  -1    5.17    3.07
  -7  10   1   -1.82    2.85
  -7  10  -1   -4.57    3.69
  -7 -10  -2   75.55   10.60
  -7 -10   2   73.78   10.48
  -7  10  -2   93.83   10.71
  -7  10   2   78.19    9.61
  -7 -10   2   83.75   11.10
  -7 -10  -2   73.91   10.68
  -7  10  -2   74.23    9.17
  -7  10   2   78.13    9.49
  -7  10   3   18.71    5.18
  -7 -10  -3   14.66    5.29
  -7 -10   3   17.29    5.70
   7 -10  -3   38.01    7.82
  -7 -10   3   16.97    5.41
  -7 -10  -3   23.53    7.07
  -7  10  -3   20.30    5.85
  -7  10   3   12.26    4.03
  -7  10  -3   16.60    4.64
  -7 -10  -4    1.07    3.18
  -7  10   4   -1.42    2.68
  -7 -10   4    0.85    3.15
  -7 -10   4    1.29    3.30
  -7 -10  -4    2.19    4.26
   7 -10  -4    5.30    4.95
  -7  10  -4    6.21    3.92
  -7  10   4   -8.73    3.89
  -7  10  -4   -2.93    3.33
  -7 -10  -5    4.59    3.98
  -7  10   5    0.30    2.49
  -7 -10   5   -1.97    3.97
  -7 -10   5   -3.58    3.30
  -7 -10  -5    0.88    3.97
  -7  10  -5    3.43    3.17
   7 -10  -5    2.78    4.02
  -7  10   5    2.57    2.60
  -7  10  -5    5.35    3.07
   7 -10  -6   44.47    8.68
  -7  10   6   40.80    7.22
  -7 -10   6   42.72    8.73
  -7 -10   6   34.08    7.55
  -7 -10  -6   38.57    8.28
  -7  10  -6   41.15    7.51
  -7  10   6   38.88    6.91
  -7  10  -6   38.18    7.11
  -7 -10  -6   40.05    8.07
  -7  10   7   35.59    6.86
  -7 -10   7   42.99    8.27
  -7  10  -7   45.01    8.16
  -7 -10   7   31.87    7.35
  -7 -10  -7   38.19    8.43
   7 -10  -7   48.83    9.01
  -7  10  -7   31.75    7.01
  -7  10   7   28.70    6.20
  -7 -10  -7   43.66    8.76
  -7  10   8   43.24    7.60
  -7 -10   8   40.29    8.42
  -7  10  -8   46.73    8.28
  -7 -10   8   53.75    8.94
   7 -10  -8   47.62    9.40
  -7  10  -8   53.29    8.73
  -7 -10  -8   37.50    8.37
  -7  10   8   39.20    7.10
  -7  10   9   24.57    5.91
  -7  10   9   26.07    6.51
  -7 -10   9   23.61    6.89
  -7  10  -9   35.25    7.59
   7 -10  -9   28.12    7.23
  -7 -10   9   26.98    6.91
  -7  10  -9   36.44    7.62
  -7 -10  -9   34.52    7.94
   7 -10 -10   57.83   10.09
  -7 -10  10   61.54   10.26
  -7  10 -10   64.34   10.01
  -7 -10  10   50.42    8.87
  -7 -10 -10   64.50   10.72
  -7 -10  11    5.05    3.99
  -7  10 -11    1.59    3.16
  -7 -10  11    1.72    2.64
  -7 -10 -11   10.50    5.08
  -7 -10  12   61.59   10.30
  -7  10 -12   77.79   10.96
  -7  10 -12   67.77    9.38
  -7 -10 -12   67.42   10.77
  -7 -10  12   67.96   10.26
   7 -10 -12   60.03   10.21
  -7  10 -13   13.41    5.41
  -7  10 -13    2.84    3.43
  -7 -10 -13    7.64    5.42
  -7  10 -14   13.10    5.67
  -7  10 -14    0.55    3.13
  -7  10 -15    5.74    4.37
  -7  10 -16   57.11    9.49
  -7 -11   0    0.46    3.06
  -7 -11   0   -3.49    4.23
  -7  11   0    0.98    2.76
  -7 -11  -1   -0.39    3.31
  -7 -11   1    0.62    2.93
  -7 -11   1    7.29    4.79
  -7 -11  -1    3.20    3.46
  -7  11  -1   -0.02    2.88
  -7  11   1   -2.17    3.10
  -7 -11  -2   13.44    5.30
  -7 -11   2   13.99    5.51
  -7 -11   2    5.59    4.91
  -7 -11  -2   12.76    5.99
  -7  11  -2   12.29    4.49
  -7  11   2    0.40    3.20
  -7 -11  -3   -0.81    3.10
  -7 -11   3    2.97    3.20
  -7 -11   3    2.33    3.85
  -7 -11  -3    3.57    4.25
  -7  11  -3    8.85    4.47
  -7  11   3   -2.83    3.83
  -7 -11  -4   10.31    4.85
  -7 -11   4    5.10    3.62
  -7 -11   4   -0.69    3.88
  -7 -11  -4   10.47    4.68
  -7  11  -4   11.52    4.49
  -7  11   4    7.40    4.13
  -7 -11   5    2.81    3.39
  -7 -11   5   11.15    5.04
  -7 -11  -5   17.03    5.97
  -7  11  -5   14.64    5.42
  -7  11   5    6.64    3.44
  -7 -11  -5   13.77    5.67
  -7 -11   6   -1.29    3.47
  -7 -11   6   -2.55    4.09
  -7 -11  -6    4.19    4.84
  -7  11  -6   10.86    5.05
  -7  11   6   -1.56    2.65
  -7 -11  -6    3.60    4.33
   7 -11  -7    8.55    4.74
  -7 -11   7    5.01    3.91
  -7 -11  -7   -2.45    4.10
  -7  11  -7   -2.23    4.37
  -7  11   7   -3.18    3.88
  -7 -11  -7    6.79    4.52
   7 -11  -8   -0.33    3.43
  -7 -11  -8    5.05    4.95
  -7  11  -8   -4.66    4.18
  -7 -11   8    4.74    4.08
  -7  11   8   -0.03    2.67
  -7  11  -9    0.36    3.31
  -7 -11  -9    2.76    4.40
  -7 -11   9    3.35    3.56
   7 -11  -9    3.65    4.30
  -7  11 -10    5.85    4.37
  -7 -11  10    1.41    3.34
  -7  11 -11    0.73    3.47
  -7 -11  11    0.09    3.32
  -7 -11  12    7.07    4.59
  -7  12   0   -2.71    3.45
  -7  12  -1    3.48    3.02
  -7  12   1    6.53    3.99
  -7  12  -2   25.70    6.71
  -7  12   2   23.14    6.11
  -7  12  -3   56.83    9.32
  -7  12   3   49.26    8.62
  -7  12  -4    3.10    4.22
  -7  12   4    1.87    2.68
  -7  12  -5    1.89    3.13
  -7  12   5    2.00    2.83
  -7  12  -6   13.59    5.10
  -7  12   6    9.82    3.95
  -7  12  -7    4.56    3.94
  -7  12   7   -1.19    3.25
  -7  12  -8   28.77    7.50
  -7  13   2   -7.42    4.89
  -8   0   0  552.92   23.51
  -8   0  -1    1.93    3.86
  -8   0   1   -7.24    4.73
  -8   0  -2  104.61   10.88
  -8   0   2   79.96    9.24
  -8   0  -3   -0.37    2.83
  -8   0  -3   -1.56    3.66
  -8   0   4   40.03    6.34
  -8   0  -4   48.65    6.86
  -8   0  -4   63.16    8.97
  -8   0   5   -4.34    4.01
  -8   0  -5   -1.16    2.91
  -8   0   6   74.03    7.36
  -8   0  -6   83.16    9.10
  -8   0   6   85.11    9.82
  -8   0   7    0.72    3.12
  -8   0   7   -0.33    1.93
  -8   0  -7    3.36    3.49
  -8   0  -7    0.62    3.19
  -8   0   8   19.34    5.05
  -8   0   8   17.64    3.80
  -8   0  -8   12.15    4.63
   8   0  -8   24.08    6.36
  -8   0  -8   12.66    4.69
  -8   0   9    4.60    4.10
  -8   0   9    3.20    2.70
  -8   0  -9   -3.45    4.58
   8   0  -9   11.06    5.97
  -8   0  -9    5.15    4.67
  -8   0  10  405.67   16.24
   8   0 -10  433.29   22.30
  -8   0 -10  408.34   21.72
  -8   0 -10  444.33   21.47
  -8   0  10  408.93   21.77
  -8   0  11    6.34    4.35
  -8   0  11    1.41    2.18
  -8   0 -11    1.20    4.56
   8   0 -11    7.17    5.12
  -8   0 -11    4.70    4.45
  -8   0  12    6.34    3.90
  -8   0 -12    2.38    4.57
   8   0 -12    5.71    3.54
  -8   0 -12   -0.42    3.95
  -8   0  13    0.01    3.25
  -8   0 -13   10.96    6.35
   8   0 -13    6.13    5.07
  -8   0 -13    1.20    3.67
   8   0 -14  154.16   14.59
  -8   0 -14  138.93   14.28
  -8   0 -14  140.26   13.43
  -8   0 -15   10.97    6.18
   8   0 -15    0.69    3.77
  -8   0 -15    3.83    4.13
  -8   0 -16   20.71    7.36
   8   0 -16   23.16    6.74
  -8   0 -16   15.84    6.19
  -8   0 -17    0.70    4.42
   8   0 -17   -2.04    4.15
  -8   0 -17    1.46    3.87
  -8   0 -18   23.07    7.65
   8   0 -18   19.01    5.91
  -8   0 -18   27.45    7.32
  -8   0 -19    3.84    5.64
   8   0 -19    3.21    3.53
  -8   0 -19   -3.09    4.29
  -8   0 -20   21.43    7.64
   8   0 -20   12.73    5.97
  -8   0 -20   16.04    6.20
  -8   1   0  379.23   20.13
  -8  -1   0  346.83   19.14
  -8   1  -1  286.95   17.35
  -8  -1  -1  272.74   16.98
  -8   1   1  290.07   17.28
  -8  -1   1  258.24   16.30
  -8   1  -2    1.08    2.79
  -8   1  -2    1.52    3.88
  -8  -1  -2   -8.18    4.87
  -8   1   2   -6.34    6.05
  -8  -1   2   -6.72    6.26
  -8  -1  -3   52.60    7.38
  -8   1  -3   47.35    6.42
  -8   1  -3   47.87    7.88
  -8  -1  -3   45.59    7.61
  -8   1   3   37.51    5.98
  -8  -1   3   26.20    4.97
  -8  -1  -4  254.28   15.20
  -8   1  -4  247.72   14.04
  -8   1  -4  238.68   16.20
  -8  -1  -4  244.25   16.08
  -8   1   4  220.43   15.34
  -8  -1   4  223.39   15.18
  -8   1   5    4.33    3.53
  -8  -1   5    5.56    4.13
  -8  -1  -5    3.62    3.56
  -8   1  -5    3.74    3.10
  -8  -1   6  119.30    9.64
  -8   1   6  114.34    8.50
  -8   1  -6  118.16   11.31
  -8  -1  -6  128.48   11.26
  -8   1  -6  133.16   10.81
  -8   1   6  100.22   10.60
  -8  -1   6  114.24   11.14
  -8  -1   7   77.59    7.83
  -8   1   7   66.83    6.49
   8   1  -7   76.93   10.14
  -8   1  -7   73.55    9.44
  -8   1  -7   68.35    8.54
  -8  -1  -7   66.61    8.64
   8  -1  -7   78.70   10.44
  -8   1   7   73.42    9.52
  -8  -1   7   73.82    9.27
  -8   1   8   72.66    9.48
  -8  -1   8   65.72    8.57
  -8  -1   8   67.06    7.30
  -8   1   8   64.29    6.23
  -8   1  -8   65.68    8.86
  -8  -1  -8   68.04    8.68
   8   1  -8   81.52   10.24
   8  -1  -8   63.41    9.38
  -8   1  -8   69.02    8.29
  -8   1   9   39.32    7.44
  -8  -1   9   44.57    7.16
  -8   1   9   39.63    4.82
  -8  -1   9   41.87    5.98
  -8  -1  -9   32.57    6.44
  -8   1  -9   38.77    7.10
   8   1  -9   45.48    8.00
   8  -1  -9   41.44    8.23
  -8  -1  -9   38.34    7.10
  -8   1  -9   42.94    7.11
  -8   1  10   21.64    5.58
  -8  -1  10   21.78    5.35
  -8  -1  10   26.06    4.86
  -8  -1 -10   17.06    5.65
  -8   1 -10   33.13    6.76
   8   1 -10   26.41    6.85
   8  -1 -10   14.77    5.83
  -8  -1 -10   22.00    6.38
  -8   1 -10   20.96    5.41
  -8   1  11    8.94    4.32
  -8  -1  11    4.83    3.97
  -8  -1  11    9.49    3.66
  -8  -1 -11    5.13    5.37
  -8   1 -11   17.46    6.64
   8   1 -11    7.40    5.53
   8  -1 -11    5.42    5.45
  -8  -1 -11   13.55    6.00
  -8   1 -11    4.34    3.65
  -8  -1  12  252.50   13.62
   8   1 -12  264.95   18.05
   8  -1 -12  269.70   18.57
  -8  -1 -12  274.90   18.62
  -8   1 -12  270.70   18.31
  -8  -1 -12  250.28   17.47
  -8   1 -12  247.88   16.64
  -8   1  12  243.31   17.55
  -8  -1  12  240.34   17.22
  -8   1  13    2.82    3.47
  -8  -1  13    7.66    3.16
  -8  -1 -13    7.43    5.05
  -8   1 -13    5.16    4.51
   8   1 -13    1.71    3.81
   8  -1 -13   12.78    5.51
  -8  -1 -13    4.34    4.59
  -8   1 -13   10.44    4.94
  -8  -1 -14   58.78    9.71
  -8   1 -14   77.58   10.70
   8   1 -14   74.48   10.24
   8  -1 -14   78.85   10.92
  -8  -1 -14   72.23    9.95
  -8   1 -14   62.99    9.21
   8   1 -15   79.00   10.60
  -8  -1 -15   84.83   11.63
  -8   1 -15   81.04   11.16
  -8  -1 -15   93.74   11.58
   8  -1 -15   68.74   10.14
  -8   1 -15   72.58   10.12
  -8  -1 -16   27.40    7.22
  -8   1 -16   41.46    8.85
   8   1 -16   28.28    7.49
   8  -1 -16   27.44    7.19
  -8  -1 -16   43.29    8.66
  -8   1 -16   26.59    6.86
  -8  -1 -17   43.77    9.05
  -8   1 -17   65.01   11.23
   8   1 -17   38.32    8.23
   8  -1 -17   45.42    8.97
  -8  -1 -17   56.32   10.28
  -8   1 -17   41.75    8.31
   8   1 -18  283.80   20.67
   8  -1 -18  273.29   20.69
  -8  -1 -18  289.14   21.31
  -8   1 -18  315.92   21.99
  -8  -1 -18  281.56   20.43
  -8   1 -18  291.90   20.30
  -8  -1 -19   24.96    8.17
  -8   1 -19   11.14    6.50
   8   1 -19    4.04    3.77
   8  -1 -19    5.38    5.02
  -8  -1 -19    3.39    5.59
  -8   1 -19   13.65    6.32
  -8  -1 -20    7.65    5.92
  -8   1 -20    9.01    6.16
   8   1 -20   -4.43    5.46
   8  -1 -20   -0.67    4.14
  -8  -1 -20   -0.69    4.05
  -8   1 -20   10.78    6.08
  -8   1 -21   39.72    9.21
  -8   2   0   44.07    7.27
  -8  -2   0   42.19    6.97
  -8   2  -1   87.99   10.02
  -8  -2  -1   79.99    9.26
  -8   2   1   83.26    9.63
  -8  -2   1   72.75    8.35
  -8   2  -2   17.55    3.96
  -8   2  -2   18.90    5.20
  -8  -2  -2    9.16    3.87
  -8   2   2   12.39    4.17
  -8  -2   2    7.00    3.97
  -8   2  -3  244.81   13.20
  -8   2  -3  264.69   17.11
  -8  -2  -3  250.45   15.89
  -8   2   3  227.67   15.63
  -8  -2   3  228.49   14.83
  -8  -2   4   17.64    5.06
  -8  -2  -4   12.91    4.71
  -8   2  -4   11.35    3.64
  -8   2  -4   13.92    5.50
  -8  -2  -4   24.75    6.48
  -8   2   4    3.34    4.28
  -8   2   5   19.02    5.29
  -8  -2   5   18.83    4.98
  -8  -2   5   23.46    5.30
  -8   2  -5   15.37    4.78
  -8  -2  -5   23.13    5.41
  -8   2  -5   22.28    4.72
  -8   2   6   44.00    7.70
  -8  -2   6   56.49    8.18
  -8  -2   6   45.97    6.77
  -8   2  -6   55.59    8.35
  -8  -2  -6   44.52    7.64
  -8   2  -6   47.53    7.02
   8   2  -6   63.06    9.51
  -8  -2   7  347.24   17.18
  -8   2   7  356.81   13.58
  -8   2  -7  395.71   20.40
   8   2  -7  387.65   20.42
  -8  -2  -7  346.49   19.26
  -8   2  -7  378.26   18.01
  -8   2   7  375.35   20.60
  -8  -2   7  355.52   19.33
  -8   2   8    5.99    4.49
  -8  -2   8   11.01    4.28
  -8  -2   8    9.35    3.99
  -8   2  -8   20.15    6.29
  -8  -2  -8    2.56    3.23
   8   2  -8   16.96    6.64
   8  -2  -8   15.72    6.06
  -8   2  -8   10.46    4.75
  -8   2   9    8.39    4.46
  -8  -2   9    6.85    3.74
  -8  -2   9    6.91    3.27
  -8   2  -9    8.10    4.83
   8   2  -9   13.59    5.28
  -8  -2  -9   11.95    4.79
   8  -2  -9    8.65    4.91
  -8   2  -9   10.40    3.87
  -8   2  10   -1.24    3.50
  -8  -2  10    2.70    3.11
  -8  -2  10    0.43    2.54
  -8   2 -10    6.88    4.30
   8   2 -10    7.51    4.56
  -8  -2 -10   -0.19    3.51
   8  -2 -10    8.79    5.07
  -8   2 -10    3.97    4.08
  -8   2  11   81.68   10.24
  -8  -2  11   77.31    8.33
   8   2 -11   87.80   10.83
   8  -2 -11   90.12   11.43
  -8  -2 -11   82.43   10.35
  -8   2 -11   85.31   10.45
  -8   2 -11   84.82    9.55
  -8  -2 -11   90.82   10.81
  -8  -2  11   82.41   10.04
  -8   2  12   30.69    6.60
  -8  -2  12   48.58    8.01
  -8  -2  12   48.37    6.66
  -8  -2 -12   47.73    8.36
  -8   2 -12   48.39    8.47
   8   2 -12   45.68    8.25
   8  -2 -12   44.31    8.36
  -8  -2 -12   43.89    7.93
  -8   2 -12   39.04    6.86
  -8   2  13   24.30    6.05
  -8  -2  13   20.09    4.43
  -8  -2 -13   16.57    6.27
  -8   2 -13   32.98    7.34
   8   2 -13   18.06    5.44
   8  -2 -13   22.11    6.45
  -8  -2 -13   30.57    7.24
  -8   2 -13   19.96    5.36
  -8  -2  14   16.17    3.79
  -8  -2 -14   16.46    6.23
  -8   2 -14   24.28    6.81
   8   2 -14   24.73    6.69
   8  -2 -14   23.22    6.92
  -8  -2 -14   22.08    6.70
  -8   2 -14   22.00    5.96
  -8  -2  15    5.81    2.97
  -8  -2 -15    7.05    5.18
  -8   2 -15    2.99    4.50
   8   2 -15    3.35    4.44
   8  -2 -15   -1.63    4.23
  -8  -2 -15   16.01    6.57
  -8   2 -15    2.67    3.61
  -8  -2 -16   13.97    5.50
  -8   2 -16    7.45    4.37
   8   2 -16    6.81    4.98
   8  -2 -16   10.24    5.78
  -8  -2 -16   14.44    6.06
  -8   2 -16    7.20    4.47
  -8  -2 -17    5.31    5.50
  -8   2 -17   -0.48    4.27
   8   2 -17   -3.43    3.90
   8  -2 -17   -2.24    4.52
  -8  -2 -17   11.30    5.94
  -8   2 -17   -0.08    3.85
  -8  -2 -18    5.57    5.11
  -8   2 -18    9.70    6.25
   8   2 -18    0.57    4.16
   8  -2 -18    6.84    6.11
  -8  -2 -18   11.00    6.01
  -8   2 -18    6.25    4.87
  -8  -2 -19   38.40    8.50
  -8   2 -19   36.95    8.82
   8   2 -19   19.07    6.28
   8  -2 -19   36.50    8.76
  -8  -2 -19   35.19    8.18
  -8   2 -19   29.77    7.51
  -8  -2 -20   24.00    8.22
  -8   2 -20   19.72    7.84
   8   2 -20    9.57    5.38
   8  -2 -20   13.44    6.34
  -8  -2 -20   24.28    7.77
  -8   2 -20   23.98    7.25
  -8   2 -21   92.77   12.64
  -8   3   0   38.05    6.27
  -8  -3   0   38.43    6.34
  -8   3  -1   33.75    6.55
  -8  -3  -1   27.86    5.60
  -8   3   1   33.05    6.15
  -8  -3   1   20.79    4.37
  -8   3  -2   11.13    2.84
  -8   3  -2   15.43    5.38
  -8  -3  -2   10.76    4.33
  -8   3   2   14.79    3.95
  -8  -3   2    0.07    4.48
  -8   3  -3  148.21    8.14
  -8   3  -3  148.04   10.04
  -8   3  -3  135.93   12.62
  -8  -3  -3  148.76   12.44
  -8   3   3  148.89   12.77
  -8  -3   3  130.92   11.38
  -8   3  -4   95.03    6.83
  -8  -3   4   97.02    9.83
  -8   3  -4   95.07    8.30
  -8   3  -4   89.95   10.39
  -8  -3  -4   91.42   10.00
  -8  -3   4   81.86    9.28
  -8  -3  -4   92.93    9.90
  -8   3   4   89.11   10.12
  -8   3   5   23.94    6.65
  -8  -3   5   21.59    5.65
  -8  -3   5   29.93    6.18
  -8   3  -5   19.89    5.80
  -8  -3  -5   22.95    6.30
  -8  -3  -5   19.09    4.91
  -8   3  -5   21.10    4.71
  -8  -3   6  324.67   17.11
  -8   3  -6  325.91   17.95
   8   3  -6  330.10   18.76
  -8  -3  -6  323.89   18.64
  -8   3  -6  318.84   15.87
  -8   3   6  303.08   18.81
  -8  -3   6  301.49   17.49
  -8  -3  -6  301.46   17.67
  -8  -3   7  123.86   10.81
   8   3  -7  133.05   12.59
  -8   3  -7  136.41   12.46
  -8  -3  -7  127.79   12.02
  -8   3  -7  119.28   10.35
  -8   3   7  122.00   12.27
  -8  -3   7  118.03   11.17
  -8  -3  -7  124.21   11.57
  -8  -3   8  106.21   10.17
   8   3  -8  105.10   11.02
  -8   3  -8  112.00   11.44
  -8  -3  -8   94.27   10.53
  -8   3  -8  112.35   10.03
  -8   3   8   94.93   10.89
  -8  -3   8   97.86   10.44
  -8  -3  -8  107.88   10.88
  -8   3   9   -1.48    3.40
  -8  -3   9    1.75    2.64
  -8  -3   9    2.42    3.04
  -8   3  -9    0.35    3.18
  -8  -3  -9    5.78    3.87
  -8  -3  -9    0.37    3.51
   8   3  -9    2.22    4.74
  -8   3  -9   -1.66    2.93
  -8   3  10    3.38    3.84
  -8  -3  10    0.32    2.90
  -8  -3  10    1.55    2.55
  -8  -3 -10    3.26    3.37
  -8   3 -10    5.49    4.76
   8   3 -10    2.99    3.91
  -8  -3 -10    5.57    4.28
   8  -3 -10   10.11    5.95
  -8   3 -10    2.71    2.79
  -8  -3  11  101.55    9.79
   8   3 -11   99.06   11.05
   8  -3 -11  104.45   11.77
  -8   3 -11  100.79   11.30
  -8  -3 -11  112.42   11.93
  -8   3 -11   97.31   10.13
  -8   3  11   86.37   10.65
  -8  -3  11   91.27   10.32
  -8  -3 -11   97.30   10.03
  -8   3  12   -1.71    4.52
  -8  -3  12    0.01    2.55
  -8  -3 -12    0.83    2.69
  -8   3 -12   -0.88    3.67
   8   3 -12    1.24    4.12
   8  -3 -12   14.08    6.03
  -8  -3 -12   -0.70    3.16
  -8   3 -12   -2.83    3.50
  -8   3  13    4.79    3.88
  -8  -3  13    5.63    3.11
  -8  -3 -13    3.08    3.51
  -8  -3 -13    3.66    2.50
  -8   3 -13    6.78    5.18
   8   3 -13    4.48    3.23
   8  -3 -13   10.24    4.96
  -8  -3 -13    1.71    4.19
  -8   3 -13    1.54    3.19
  -8  -3  14   12.43    4.05
  -8  -3 -14    7.73    3.49
  -8  -3 -14   -0.89    4.79
  -8   3 -14    7.82    4.93
   8   3 -14    6.85    4.12
   8  -3 -14   10.98    5.31
  -8  -3 -14    7.45    4.98
  -8   3 -14   11.09    4.70
  -8  -3  15   34.55    6.02
  -8  -3 -15   39.26    6.37
  -8  -3 -15   44.10    8.50
  -8   3 -15   43.15    8.63
   8   3 -15   34.78    7.32
   8  -3 -15   40.38    8.15
  -8  -3 -15   35.71    7.59
  -8   3 -15   41.24    7.62
  -8  -3  16   17.88    4.80
  -8  -3 -16   29.21    7.66
  -8   3 -16   22.15    6.49
   8   3 -16   16.54    5.11
   8  -3 -16   20.53    6.22
  -8  -3 -16   24.41    7.03
  -8   3 -16   25.34    6.61
  -8  -3  17   71.68    8.63
   8   3 -17   85.82   11.32
  -8  -3 -17   85.59   11.64
  -8   3 -17   84.74   11.55
   8  -3 -17   74.55   10.98
  -8   3 -17   91.20   11.18
  -8  -3 -17   90.13   12.06
  -8  -3 -18    7.67    5.58
  -8   3 -18    1.03    4.33
   8   3 -18   -0.05    3.20
   8  -3 -18   -0.05    3.51
  -8  -3 -18   12.97    6.58
  -8   3 -18    6.45    5.08
  -8  -3 -19   97.81   12.60
  -8   3 -19  104.42   13.65
   8   3 -19   68.88   10.59
   8  -3 -19   80.12   11.48
  -8   3 -19   98.05   12.38
  -8  -3 -19   79.52   11.75
  -8  -3 -20   16.33    7.24
   8   3 -20   -7.73    5.38
   8  -3 -20    7.95    5.71
  -8   3 -20   12.27    6.05
  -8   3 -21   74.81   11.07
  -8  -4   0   20.69    4.80
  -8   4   0   22.22    5.40
  -8  -4   0   14.61    3.74
  -8  -4  -1   29.14    6.41
  -8   4  -1   29.05    6.59
  -8  -4  -1   18.48    4.64
  -8   4   1   16.41    4.47
  -8  -4   1   13.21    3.77
  -8   4  -2  139.76    8.38
  -8   4  -2  142.46    9.07
  -8   4  -2  135.33   12.68
  -8  -4  -2  115.32   10.68
  -8   4   2  115.03   11.68
  -8  -4   2  120.78   10.61
  -8  -4  -2  130.24   11.91
  -8  -4   3    1.42    3.47
  -8   4  -3    0.11    1.68
  -8  -4   3    7.81    4.52
  -8  -4  -3    0.26    3.16
  -8   4  -3    0.31    2.20
   8  -4   3   -0.02    1.89
  -8   4  -3   -2.55    3.52
  -8  -4  -3    0.73    2.66
  -8   4   4   27.90    6.42
  -8  -4   4   29.68    6.15
  -8   4  -4   34.23    4.66
  -8  -4   4   48.81    7.82
  -8   4  -4   37.13    7.04
  -8  -4  -4   35.62    6.74
   8  -4   4   31.78    4.52
  -8   4  -4   34.37    5.10
  -8   4  -4   50.97    8.77
  -8  -4  -4   43.92    7.34
  -8   4  -5  172.13   10.25
  -8  -4   5  185.56   13.69
  -8   4  -5  196.00   13.84
  -8   4  -5  183.36   11.49
  -8   4  -5  194.13   15.50
  -8  -4  -5  188.22   13.69
  -8   4   5  177.06   14.55
  -8  -4   5  186.04   13.40
  -8  -4  -5  167.11   13.66
  -8   4   6   49.02    8.07
  -8  -4   6   52.09    7.51
  -8  -4   6   45.29    7.33
  -8  -4  -6   44.87    7.51
  -8   4  -6   44.80    7.72
  -8  -4  -6   56.32    8.64
  -8   4  -6   47.91    6.35
  -8   4   7   60.60    8.77
  -8  -4   7   51.99    7.47
  -8  -4   7   55.20    7.81
  -8  -4  -7   54.77    8.16
   8   4  -7   80.08    9.81
  -8  -4  -7   64.86    9.23
  -8   4  -7   47.99    6.75
  -8   4  -7   49.94    7.94
  -8  -4   8   83.50    9.27
   8   4  -8   98.86   10.97
  -8   4  -8  101.15   11.11
  -8  -4  -8   98.08   11.18
  -8   4  -8   92.64    8.91
  -8   4   8   94.85   11.00
  -8  -4   8   88.28    9.60
  -8  -4  -8   87.59    9.92
  -8   4   9   27.00    6.50
  -8  -4   9   22.51    5.27
  -8  -4   9   33.21    6.43
  -8  -4  -9   36.42    6.73
  -8   4  -9   35.08    6.99
  -8  -4  -9   32.49    7.00
   8   4  -9   40.86    7.55
  -8   4  -9   27.65    5.29
  -8   4  10   31.02    6.71
  -8  -4  10   29.24    5.96
  -8  -4  10   28.61    5.82
  -8  -4 -10   34.65    6.32
  -8   4 -10   39.91    7.54
  -8  -4 -10   30.22    6.84
   8   4 -10   27.36    6.12
   8  -4 -10   34.73    8.04
  -8   4 -10   22.01    4.95
  -8   4  11    9.23    4.18
  -8  -4  11   15.23    4.49
  -8  -4 -11   11.19    4.18
  -8   4 -11   25.30    6.97
   8   4 -11   23.16    6.13
  -8  -4 -11   22.10    6.33
   8  -4 -11   18.02    5.93
  -8   4 -11   16.44    4.59
  -8   4  12    6.54    4.36
  -8  -4  12   -1.66    3.30
  -8  -4 -12    2.18    2.63
  -8   4 -12    4.55    4.12
   8   4 -12    9.30    4.66
  -8  -4 -12    0.56    3.57
  -8   4 -12    1.41    3.00
  -8   4  13    6.18    3.53
  -8  -4  13    0.69    3.28
  -8  -4 -13    0.76    2.61
  -8   4 -13   -0.44    4.41
   8   4 -13   -0.03    3.71
  -8  -4 -13   -1.38    4.63
   8  -4 -13    4.32    4.61
  -8   4 -13    3.02    3.51
  -8  -4  14    7.04    3.23
  -8  -4 -14    8.14    3.54
  -8   4 -14    7.31    3.93
   8   4 -14    7.73    4.25
   8  -4 -14   10.52    5.61
  -8  -4 -14    6.79    5.03
  -8   4 -14   10.47    4.26
  -8  -4  15   14.25    4.57
  -8  -4 -15   14.84    4.57
  -8  -4 -15   10.20    4.58
  -8   4 -15    9.12    4.43
   8   4 -15   12.56    4.99
   8  -4 -15   13.24    5.25
  -8  -4 -15   16.29    5.79
  -8   4 -15   15.16    4.74
  -8  -4  16   -0.89    2.93
  -8  -4 -16    3.65    3.16
  -8  -4 -16   -1.29    4.37
  -8   4 -16    4.00    4.69
   8   4 -16   -2.93    4.32
   8  -4 -16   -2.79    4.02
  -8  -4 -16   -0.19    4.43
  -8   4 -16   -0.29    3.42
  -8  -4  17   23.49    5.69
  -8  -4 -17   16.08    5.00
  -8   4 -17   19.15    6.13
   8   4 -17   11.50    4.60
   8  -4 -17   15.38    5.81
  -8  -4 -17   20.18    7.39
  -8   4 -17   17.53    5.96
  -8  -4  18   30.65    6.47
  -8  -4 -18   29.51    7.30
  -8   4 -18   39.49    8.61
   8   4 -18   31.32    7.32
   8  -4 -18   41.27    8.66
  -8  -4 -18   45.14    9.11
  -8   4 -18   35.78    7.58
  -8  -4 -19   33.95    8.06
  -8   4 -19   24.13    6.73
   8   4 -19   18.69    6.23
   8  -4 -19   23.42    6.88
  -8   4 -19   31.41    7.57
  -8  -4 -20   10.22    5.94
  -8   4 -20    8.47    4.80
   8  -5   0  928.31   27.71
  -8   5   0  920.06   32.59
  -8  -5   0  884.97   28.21
  -8  -5   0  939.09   32.57
  -8  -5  -1   39.54    8.46
   8  -5   1   26.11    5.32
  -8  -5   1   44.22    8.48
  -8   5  -1   33.74    7.49
  -8  -5  -1   33.52    6.26
  -8   5   1   23.58    6.65
  -8  -5   1   19.10    5.12
  -8  -5   2    9.43    4.14
  -8  -5   2   18.14    5.72
  -8   5  -2   12.80    3.10
  -8  -5  -2    8.18    4.68
  -8  -5   2    8.03    4.03
   8  -5   2    6.29    2.76
  -8   5  -2    8.66    3.58
  -8  -5  -2    6.22    3.04
  -8   5   2    3.85    4.32
  -8   5  -3   79.72    7.24
  -8  -5   3   81.45    9.84
  -8  -5  -3   85.74    9.14
  -8  -5   3   90.53    9.44
  -8  -5  -3   82.91    9.99
   8  -5   3   92.32    8.31
  -8   5  -3   79.62   10.14
  -8   5   3   83.27    9.88
  -8   5  -4   86.37    7.60
  -8  -5   4   99.11   10.71
  -8   5  -4   89.11    9.30
  -8   5  -4   91.64    7.62
  -8   5  -4   88.85   10.49
  -8  -5  -4   83.03    9.05
  -8   5   4   89.56   10.64
  -8  -5   4   80.97    8.86
  -8  -5  -4   87.32   10.42
   8  -5   4   87.31    7.75
  -8   5   5   60.88    9.07
  -8  -5   5   54.75    7.54
  -8   5  -5   57.07    6.48
  -8  -5   5   44.10    7.43
  -8  -5  -5   47.59    7.88
  -8   5  -5   51.47    7.52
  -8   5  -5   64.56    6.66
  -8   5  -5   52.24    8.78
  -8  -5  -5   53.99    7.61
  -8   5  -6  103.24    8.90
  -8  -5   6  110.15   11.11
  -8   5  -6  106.02   10.64
  -8   5  -6  102.02    8.67
  -8  -5  -6  101.29   10.46
  -8   5   6  121.42   12.36
  -8  -5   6   95.84    9.86
  -8  -5  -6   98.04   10.97
  -8   5   7   56.97    8.62
  -8  -5   7   56.70    7.72
  -8  -5   7   60.99    8.81
  -8  -5  -7   58.29    8.79
   8   5  -7   65.80    9.05
  -8   5  -7   58.22    7.91
  -8   5  -7   64.92    7.46
  -8   5   8   41.90    7.62
  -8  -5   8   35.65    6.48
  -8  -5   8   44.88    7.62
  -8  -5  -8   44.79    7.54
  -8   5  -8   44.00    7.36
  -8  -5  -8   56.28    9.20
   8   5  -8   50.56    7.94
  -8   5  -8   39.12    5.81
  -8   5   9   15.21    5.22
  -8  -5   9   22.40    5.23
  -8  -5   9   28.82    6.34
  -8  -5  -9   21.18    5.24
  -8   5  -9   19.80    5.13
  -8  -5  -9   21.58    6.20
   8   5  -9   24.86    5.88
  -8   5  -9   25.41    5.01
  -8   5  10   69.69    9.69
  -8  -5  10   52.27    7.85
  -8  -5 -10   71.61    9.25
  -8   5 -10   69.81    9.11
  -8  -5 -10   79.04   10.73
  -8   5 -10   71.13    8.05
   8   5 -10   69.62    9.13
  -8   5  11   17.86    5.18
  -8  -5  11   16.29    5.09
  -8  -5 -11   19.07    5.29
  -8   5 -11   21.62    5.63
  -8  -5 -11   33.77    7.70
   8   5 -11   42.45    7.84
   8  -5 -11   29.76    7.64
  -8   5 -11   20.81    5.02
  -8   5  12   -1.78    3.86
  -8  -5  12   -3.10    3.80
  -8  -5 -12    3.84    3.50
  -8   5 -12   -1.13    3.36
   8   5 -12    0.35    3.00
  -8  -5 -12   -2.96    4.00
   8  -5 -12    4.43    4.56
  -8   5 -12    2.56    2.64
  -8   5  13    1.14    3.17
  -8  -5  13   16.51    5.05
  -8  -5 -13   17.06    5.25
  -8   5 -13   12.11    5.18
   8   5 -13   11.22    4.51
  -8  -5 -13   14.96    5.45
   8  -5 -13   15.50    5.77
  -8   5 -13   10.58    3.97
  -8  -5  14   34.92    6.82
  -8  -5 -14   34.98    6.78
  -8   5 -14   38.61    8.04
   8   5 -14   36.42    7.14
  -8  -5 -14   48.84    9.09
   8  -5 -14   46.32    8.62
  -8   5 -14   46.44    7.65
  -8  -5  15    2.52    3.17
  -8  -5 -15   -0.79    3.29
  -8   5 -15    0.33    3.68
   8   5 -15   -0.16    3.83
  -8  -5 -15    3.01    4.94
   8  -5 -15    5.68    5.46
  -8   5 -15   10.05    4.81
  -8  -5  16    1.43    2.58
  -8  -5 -16   -0.87    3.15
  -8   5 -16    0.16    3.92
   8   5 -16   -0.52    3.30
   8  -5 -16    0.29    3.73
  -8  -5 -16    6.01    4.88
  -8   5 -16   -2.89    3.90
  -8  -5  17    3.58    3.34
  -8   5 -17    4.92    3.69
   8   5 -17    2.53    3.08
   8  -5 -17    4.55    4.28
  -8  -5 -17   12.92    6.85
  -8   5 -17    6.75    4.51
  -8  -5  18   52.36    8.45
  -8   5 -18   65.98   10.77
   8   5 -18   61.39    9.77
   8  -5 -18   58.20    9.95
  -8   5 -18   76.94   10.56
  -8  -5  19   -4.85    4.08
  -8  -5 -19    6.63    4.81
   8   5 -19   -8.68    5.58
   8  -5 -19    3.73    4.00
  -8   5 -19    6.65    4.42
  -8   5 -20   15.09    5.66
  -8  -6   0   -2.38    3.81
   8  -6   0    0.60    3.31
  -8   6   0   -4.07    4.46
  -8  -6   0   -1.87    3.14
  -8  -6   1    5.46    4.08
   8  -6   1    6.18    3.70
  -8  -6   1   14.96    6.30
  -8  -6  -1    9.41    5.46
  -8  -6   1    6.63    4.88
  -8   6  -1    1.39    2.51
   8  -6  -1    3.62    3.06
  -8   6  -1    2.79    3.36
  -8  -6  -1    0.49    2.79
  -8   6   1   -3.04    4.14
  -8   6  -2  351.11   15.85
  -8  -6   2  370.13   20.72
  -8   6  -2  335.23   20.05
  -8  -6  -2  333.20   17.27
  -8   6   2  312.84   19.54
  -8  -6   2  361.22   17.76
   8  -6  -2  344.73   18.42
  -8  -6  -2  348.85   20.80
  -8  -6   2  326.54   20.03
   8  -6   2  353.05   16.83
  -8   6   3   86.49   10.35
   8  -6   3  104.36    9.04
  -8   6  -3   98.34    8.84
  -8  -6   3  107.70   11.97
  -8   6  -3  104.91   10.05
  -8   6  -3   99.54   11.62
  -8  -6  -3   90.04    9.41
   8  -6  -3   97.20   10.37
  -8  -6   3   98.80    9.50
  -8  -6  -3   91.74   11.21
  -8  -6   3   93.33   11.12
  -8   6   4   14.81    6.15
  -8  -6   4    4.08    3.15
  -8  -6  -4    7.11    4.59
  -8  -6   4    2.44    3.79
  -8   6  -4    4.85    2.41
   8  -6  -4    0.58    3.54
  -8   6  -4    7.62    3.81
  -8  -6   4   -5.92    4.73
  -8   6  -4    1.58    3.70
  -8  -6  -4    5.22    2.63
  -8   6   5    0.79    2.51
  -8  -6   5   -2.95    3.39
  -8  -6  -5    4.64    4.30
  -8   6  -5    0.41    2.25
  -8  -6   5    4.64    4.09
  -8   6  -5    1.92    2.65
   8  -6  -5   -3.48    4.02
  -8   6  -5    2.94    3.77
  -8  -6  -5    1.81    2.80
  -8   6   6    2.07    3.38
  -8  -6   6   -0.05    2.49
  -8   6  -6   -1.45    2.59
  -8  -6  -6    2.08    3.74
  -8  -6   6   -0.37    3.46
  -8   6  -6   -3.26    3.50
  -8   6  -6    0.22    3.28
  -8  -6  -6    6.35    3.96
  -8   6   7    0.66    3.13
  -8  -6   7    0.32    2.48
  -8   6  -7    2.50    2.82
  -8  -6  -7    1.88    3.83
  -8  -6   7    4.78    3.94
  -8   6  -7    1.01    2.71
   8   6  -7    9.28    4.66
  -8   6   8    1.70    3.41
  -8  -6   8   -1.04    2.67
  -8  -6  -8   -1.99    3.62
  -8  -6   8    1.19    3.46
  -8   6  -8   -4.46    3.95
   8   6  -8    8.34    4.21
  -8   6   9   -1.67    3.34
  -8  -6  -9   -3.08    3.74
  -8  -6   9    5.58    3.78
  -8   6  -9   -1.46    3.09
  -8  -6  -9    8.93    5.38
   8   6  -9    5.39    4.19
  -8   6  -9    4.09    2.65
  -8   6  10   11.19    4.52
  -8  -6 -10    3.28    3.45
  -8  -6  10   13.14    4.77
  -8   6 -10   12.06    4.76
  -8  -6 -10   18.62    6.99
   8   6 -10   12.23    4.91
  -8   6 -10    8.67    3.30
  -8   6  11   12.63    5.12
  -8  -6 -11    9.37    4.34
  -8  -6  11   16.71    5.69
  -8   6 -11   16.72    5.20
  -8  -6 -11   24.49    6.98
   8   6 -11   22.41    5.92
  -8   6 -11   19.67    4.75
  -8   6  12   19.76    5.54
  -8  -6 -12   19.13    5.50
  -8  -6  12   20.26    5.36
  -8   6 -12   21.96    6.07
  -8  -6 -12   24.69    7.05
   8   6 -12   27.35    6.52
  -8   6 -12   21.43    5.11
  -8  -6 -13   -2.36    3.51
  -8  -6  13    2.87    3.23
  -8   6 -13    1.14    3.36
   8   6 -13   -1.10    2.88
  -8  -6 -13    0.99    3.33
   8  -6 -13    3.93    4.98
  -8   6 -13   -4.01    3.47
  -8  -6 -14   26.46    6.38
  -8  -6  14   23.47    6.05
  -8   6 -14   15.45    5.53
   8   6 -14   22.61    5.94
  -8  -6 -14   29.38    7.56
   8  -6 -14   29.88    7.67
  -8   6 -14   21.87    5.48
  -8  -6 -15   -0.74    3.33
  -8  -6  15    3.20    3.29
  -8   6 -15    5.89    4.68
   8   6 -15   -0.71    2.95
  -8  -6 -15    1.95    3.84
   8  -6 -15    5.19    4.56
  -8   6 -15   -6.32    4.21
  -8  -6 -16    4.37    3.83
  -8  -6  16   -0.79    3.27
  -8   6 -16    0.73    3.43
   8   6 -16   -2.73    4.17
  -8  -6 -16   -1.31    4.12
   8  -6 -16    2.76    4.46
  -8   6 -16    2.80    3.21
  -8  -6 -17    8.93    4.02
  -8  -6  17    8.15    4.46
  -8   6 -17   17.06    6.36
   8   6 -17   17.13    5.41
   8  -6 -17   23.57    7.28
  -8   6 -17   11.89    5.08
  -8  -6  18   16.78    5.60
  -8   6 -18   20.47    6.79
   8   6 -18   16.05    5.32
   8  -6 -18   26.98    7.68
  -8   6 -18   20.41    5.72
  -8  -6  19   -2.22    3.32
   8   6 -19   -5.55    4.50
  -8   6 -19   -2.40    3.79
  -8  -6  20   -3.64    3.58
  -8   6 -20   -2.64    3.94
  -8  -7   0   20.99    5.07
  -8  -7   0   24.82    7.44
  -8  -7   0   15.56    6.09
   8  -7   0    9.51    4.98
  -8   7   0   14.49    5.87
   8  -7   1  181.80   13.35
  -8   7  -1  169.90   11.71
  -8  -7   1  178.04   15.37
  -8  -7  -1  178.29   15.61
  -8   7  -1  164.63   14.34
  -8   7   1  160.44   14.04
  -8  -7  -1  165.91   11.98
  -8  -7   1  172.11   12.18
  -8  -7  -1  172.57   15.26
  -8  -7   1  155.69   14.29
   8  -7  -1  166.55   13.32
  -8  -7   2    3.31    3.02
   8  -7  -2   11.52    4.98
  -8  -7  -2   15.28    5.90
  -8  -7   2    6.56    5.16
   8  -7   2   15.06    4.76
  -8  -7   2    8.85    5.65
  -8   7  -2    4.57    3.12
  -8   7  -2    0.25    4.02
  -8  -7  -2    1.04    2.42
  -8   7   2   -7.04    5.60
  -8   7  -3  242.89   14.43
  -8  -7   3  257.12   17.99
   8  -7   3  269.15   14.90
  -8   7  -3  249.74   14.77
  -8   7  -3  243.12   17.58
  -8  -7  -3  256.37   14.83
  -8   7   3  247.79   17.61
  -8  -7  -3  237.60   17.67
  -8  -7   3  234.89   14.18
  -8  -7   3  244.50   17.76
   8  -7  -3  257.24   16.79
  -8   7   4   33.52    7.54
  -8  -7   4   24.50    4.98
  -8  -7  -4   33.39    7.29
  -8  -7   4   19.30    6.04
  -8   7  -4   25.35    5.08
  -8   7  -4   26.10    5.42
  -8  -7   4   22.29    6.07
   8  -7  -4   19.97    5.94
  -8   7  -4   15.63    5.16
  -8  -7  -4   19.87    4.57
  -8   7   5    0.07    3.04
  -8  -7   5   -1.18    2.64
  -8  -7  -5    3.41    2.83
  -8  -7   5    1.06    3.40
  -8   7  -5    0.34    2.34
  -8   7  -5    2.53    3.01
  -8  -7   5    2.67    3.69
   8  -7  -5   -0.63    3.69
  -8   7  -5   -2.73    4.09
  -8  -7  -5    2.18    2.57
  -8   7   6    0.14    3.16
  -8  -7   6   -2.22    2.26
  -8  -7  -6    4.13    4.38
  -8   7  -6    1.79    2.66
  -8  -7   6   -5.66    4.59
  -8   7  -6   -2.03    3.15
  -8  -7   6   -2.72    3.29
   8  -7  -6   -0.41    3.16
  -8   7  -6    0.63    2.99
  -8  -7  -6   -2.49    2.87
  -8   7   7   54.32    8.52
  -8  -7  -7   70.47    9.78
  -8   7  -7   58.23    7.78
  -8  -7   7   60.94    9.12
  -8   7  -7   67.24    8.63
   8  -7  -7   63.09    8.99
  -8   7  -7   67.96    9.77
  -8  -7  -7   67.18    8.24
  -8  -7   7   77.50    8.40
  -8   7   8   62.73    9.21
  -8   7  -8   66.37    8.45
  -8  -7  -8   45.35    8.14
  -8  -7   8   55.75    8.95
  -8   7  -8   54.30    7.98
   8  -7  -8   65.27    9.45
   8   7  -8   61.80    8.54
  -8  -7  -8   66.95    8.32
  -8   7   9    6.34    3.42
  -8   7  -9   13.47    4.77
  -8  -7  -9   15.43    5.51
  -8  -7   9   14.02    5.20
   8  -7  -9   15.70    5.12
  -8   7  -9   15.45    4.94
   8   7  -9   18.43    5.31
  -8   7  10   42.45    8.41
  -8  -7 -10   47.67    8.42
  -8  -7  10   49.03    9.28
   8  -7 -10   41.39    8.13
  -8   7 -10   50.89    8.48
   8   7 -10   55.93    8.39
  -8  -7  11  150.25   14.07
   8   7 -11  142.00   12.89
  -8   7 -11  143.17   13.56
  -8  -7 -11  153.72   15.37
  -8  -7 -11  138.58   13.89
   8  -7 -11  129.59   13.56
  -8   7  11  143.38   14.28
  -8   7  12   -0.43    2.96
  -8  -7 -12    0.74    3.58
  -8  -7  12   -2.37    3.02
   8  -7 -12   -3.12    4.20
  -8   7 -12    2.53    3.68
   8   7 -12    6.15    3.34
  -8  -7 -13   19.36    6.08
  -8  -7  13   20.47    5.81
   8  -7 -13    7.99    4.83
  -8   7 -13   15.56    5.12
  -8  -7 -13   29.58    7.43
   8   7 -13   17.08    5.28
  -8  -7 -14    6.01    3.70
  -8  -7  14    8.19    4.88
  -8   7 -14    4.50    4.03
   8   7 -14    9.44    4.92
  -8  -7 -14    8.10    5.14
   8  -7 -14    4.54    4.08
  -8  -7 -15   15.60    4.97
  -8  -7  15   14.10    5.06
  -8   7 -15    8.37    4.82
   8   7 -15   14.44    4.87
  -8  -7 -15   11.38    5.08
   8  -7 -15   23.55    7.21
   8  -7 -15   11.85    5.55
  -8  -7 -16    3.73    3.90
  -8  -7  16   -2.19    3.36
  -8   7 -16    1.66    4.20
   8   7 -16   -5.33    4.16
   8  -7 -16    6.59    5.26
  -8   7 -16    7.20    4.07
  -8  -7 -17   37.60    7.75
  -8  -7  17   19.71    5.60
  -8   7 -17   21.22    6.64
   8   7 -17   23.05    6.61
   8  -7 -17   27.14    7.44
  -8   7 -17   22.25    6.09
  -8  -7  18   -1.18    3.27
   8   7 -18   -0.17    3.72
   8  -7 -18   10.95    5.69
  -8   7 -18    2.34    3.59
  -8   7 -19   41.29    8.39
   8  -8   0  146.47   12.56
  -8  -8   0  137.63   14.05
  -8   8   0  117.18   12.27
  -8  -8   0  139.44   14.12
   8  -8  -1   30.66    6.41
   8  -8   1   45.07    7.43
  -8  -8  -1   35.43    7.70
  -8  -8   1   33.39    7.25
  -8  -8   1   25.38    6.32
  -8  -8  -1   36.69    8.03
  -8   8  -1   28.98    5.55
  -8   8  -1   27.50    6.44
  -8   8   1   26.18    5.85
  -8   8   2    0.89    3.37
  -8  -8  -2   -0.77    3.11
  -8  -8   2   -4.68    3.96
  -8  -8  -2    1.85    4.61
  -8  -8   2    3.82    3.74
  -8   8  -2   -1.31    2.76
   8  -8   2    5.29    3.68
   8  -8  -2    0.91    3.21
  -8   8  -2   -9.59    5.29
  -8   8   3   12.45    4.77
  -8  -8  -3    9.64    4.38
  -8  -8   3   14.25    5.30
  -8  -8   3   16.52    5.65
  -8   8  -3   17.99    4.76
   8  -8  -3   10.41    4.51
  -8   8  -3   10.94    4.64
  -8   8   4    1.49    3.17
  -8  -8  -4    7.38    4.39
  -8  -8   4   12.20    5.26
   8  -8  -4    9.94    4.85
  -8   8  -4   12.96    4.59
  -8  -8   4    2.96    4.25
  -8   8  -4    2.40    3.34
  -8   8   5   33.40    6.92
  -8  -8  -5   30.41    7.10
   8  -8  -5   41.89    8.08
  -8  -8   5   38.49    7.74
  -8   8  -5   38.17    6.58
  -8  -8   5   35.45    7.43
  -8   8  -5   32.44    5.97
  -8   8  -5   31.25    6.84
  -8   8   6   24.77    6.14
   8  -8  -6   29.73    6.90
  -8  -8  -6   38.35    7.73
  -8  -8   6   21.39    6.38
  -8   8  -6   28.11    5.78
  -8   8  -6   31.24    5.95
  -8  -8   6   26.89    6.58
  -8   8  -6   26.69    7.18
  -8   8   7   34.52    7.06
   8  -8  -7   41.32    7.94
  -8  -8  -7   36.78    8.08
  -8  -8   7   40.94    7.98
  -8   8  -7   37.35    6.82
  -8   8  -7   35.69    6.40
  -8  -8   7   29.15    6.59
  -8   8  -7   34.34    7.54
   8  -8  -8   -2.79    3.90
  -8   8   8   -1.52    2.48
  -8  -8  -8    5.13    4.33
  -8   8  -8    4.30    3.43
  -8  -8   8   -3.40    3.88
  -8   8  -8    1.26    2.60
  -8  -8   8   -0.85    3.64
  -8   8  -8    9.29    5.40
  -8   8   9   -0.10    3.29
  -8  -8  -9    0.59    3.26
  -8   8  -9    1.06    3.35
  -8  -8   9    4.96    4.01
  -8   8  -9   -1.04    2.68
   8  -8  -9    1.75    3.43
  -8   8  10    6.82    3.63
  -8  -8 -10   10.51    5.71
  -8   8 -10   13.09    5.52
  -8  -8  10    7.29    4.58
  -8   8 -10   -0.18    3.26
   8  -8 -10   -3.77    4.71
  -8  -8 -11   47.69    8.58
  -8   8  11   37.86    7.79
  -8   8 -11   46.35    7.92
  -8  -8  11   44.70    8.45
  -8   8 -11   45.65    8.02
   8  -8 -11   50.28    9.04
  -8  -8 -12   14.85    5.73
  -8  -8  12   12.38    5.71
  -8   8 -12    9.90    4.73
   8  -8 -12    8.16    4.57
  -8  -8 -13    7.60    4.82
  -8  -8  13    4.98    4.35
  -8   8 -13    3.96    4.22
   8  -8 -13   -2.97    4.21
  -8  -8 -14    2.50    3.38
  -8  -8  14    1.06    3.13
  -8  -8 -15   48.74    8.93
  -8  -8  15   49.71    9.22
  -8   8 -15   53.09    9.39
  -8  -8 -16    8.54    4.71
  -8   8 -16    0.89    3.36
  -8  -8 -17   54.68    9.68
   8  -8 -17   47.18    9.55
  -8  -8 -18    6.68    4.70
  -8  -9   0   85.85   11.36
  -8  -9   0   73.40   10.72
   8  -9   0  100.77   11.04
  -8   9   0   74.12    9.76
  -8   9   1   29.51    6.77
  -8  -9  -1   39.29    8.30
  -8  -9   1   30.32    7.42
  -8  -9   1   34.61    7.70
  -8  -9  -1   47.83    9.10
   8  -9  -1   43.46    7.81
  -8   9  -1   30.23    6.54
  -8   9   2   21.09    5.55
  -8  -9  -2   21.38    6.57
  -8  -9   2   15.72    5.52
  -8  -9   2   14.52    5.65
  -8  -9  -2   19.01    6.43
  -8   9  -2   18.96    5.09
  -8   9  -2   10.60    3.95
   8  -9  -2   24.91    6.36
  -8   9   3   33.20    7.13
  -8  -9  -3   39.73    8.31
  -8  -9   3   34.33    7.54
  -8  -9  -3   44.47    9.09
  -8  -9   3   44.31    8.62
  -8   9  -3   43.01    7.06
   8  -9  -3   40.40    7.59
  -8   9  -3   28.57    6.39
  -8   9   4    6.25    3.55
  -8  -9  -4    2.81    3.70
   8  -9  -4   17.10    5.96
  -8  -9   4    7.92    4.85
  -8  -9  -4   12.14    6.68
  -8  -9   4    0.07    3.30
  -8   9  -4   15.93    4.90
  -8   9  -4    2.41    3.35
  -8   9   5   16.12    5.30
  -8  -9  -5   30.93    7.50
  -8  -9   5   21.92    6.94
  -8   9  -5   20.76    5.73
  -8  -9   5   20.92    6.41
  -8   9  -5   13.79    4.43
   8  -9  -5   23.53    6.54
  -8   9   6   16.76    5.36
  -8  -9  -6   19.59    6.52
  -8  -9   6   24.87    6.67
  -8   9  -6   19.45    5.50
  -8  -9   6   19.38    6.45
   8  -9  -6   20.25    6.33
  -8   9  -6   22.77    6.20
   8  -9  -7  180.48   16.32
  -8  -9   7  172.05   16.10
  -8   9  -7  151.56   13.64
  -8  -9  -7  177.05   16.55
  -8   9  -7  163.60   15.10
  -8   9   7  174.11   15.41
  -8  -9   7  178.38   16.15
  -8   9   8   58.32    9.15
  -8  -9  -8   61.02   10.04
  -8  -9   8   54.33    9.76
  -8   9  -8   63.62    9.31
   8  -9  -8   50.38    9.43
  -8  -9   8   52.90    9.34
  -8   9  -8   53.05    9.09
  -8  -9  -9    0.19    3.97
  -8   9   9   -3.34    4.11
  -8  -9   9   -3.19    3.65
  -8   9  -9    2.40    3.03
   8  -9  -9    8.36    5.30
  -8  -9   9    4.42    4.12
  -8   9  -9    9.81    5.43
  -8  -9 -10   17.33    6.45
  -8   9  10   12.38    4.69
  -8  -9  10   23.95    7.03
  -8   9 -10   18.00    5.58
   8  -9 -10   10.45    5.50
  -8   9 -10   17.50    5.29
  -8  -9 -11   51.52    9.55
  -8  -9  11   49.57    9.28
  -8   9 -11   37.70    7.38
   8  -9 -11   43.51    8.94
  -8   9 -11   32.05    6.96
  -8  -9 -12   20.37    6.89
  -8   9 -12   28.53    7.10
  -8  -9  12   17.35    6.22
  -8   9 -12   21.60    5.98
  -8  -9 -13   31.57    7.68
  -8   9 -13   32.87    7.46
  -8   9 -13   35.32    7.55
  -8   9 -14   23.38    6.52
  -8   9 -15   13.90    5.78
  -8  10   0   -3.59    3.82
  -8 -10   0   -0.73    3.04
  -8 -10   0    4.42    4.11
  -8  10   1    2.97    2.64
  -8 -10  -1    6.94    3.92
  -8 -10   1   10.70    4.84
  -8 -10   1   10.34    5.32
  -8 -10  -1   12.37    5.43
  -8  10  -1   -2.61    3.90
  -8  10   2   -0.11    2.87
  -8 -10  -2    5.40    4.24
  -8 -10   2    0.81    3.38
  -8 -10   2    2.99    4.21
  -8 -10  -2    0.55    4.34
  -8  10  -2   -1.64    3.55
  -8  10   3    7.14    3.33
  -8 -10  -3   15.36    5.65
  -8 -10   3    9.21    4.64
  -8 -10   3   20.39    6.90
  -8 -10  -3    7.99    4.66
  -8  10  -3   13.22    4.52
   8 -10  -3   18.76    6.29
  -8  10  -3    2.10    3.18
  -8  10   4   49.89    8.30
  -8 -10  -4   52.73    9.65
  -8 -10   4   44.00    8.77
  -8 -10  -4   45.75    9.19
  -8 -10   4   44.74    8.92
  -8  10  -4   51.65    8.27
   8 -10  -4   48.61    8.93
  -8  10  -4   36.11    7.25
   8 -10  -5   11.86    5.54
  -8  10   5    1.35    2.81
  -8 -10  -5    3.23    4.34
  -8 -10   5    1.12    3.59
  -8 -10  -5    4.50    5.03
  -8 -10   5    1.09    3.02
  -8  10  -5    5.07    3.95
  -8  10  -5   -0.25    3.00
  -8  10   6   -1.92    3.53
  -8 -10  -6    2.97    4.31
  -8 -10   6    4.87    4.07
  -8 -10  -6    4.79    5.31
  -8  10  -6    8.22    4.72
  -8 -10   6   -3.80    4.46
   8 -10  -6    5.69    4.25
  -8  10  -6    0.48    3.04
  -8  10   7   11.49    4.61
  -8  10  -7    9.60    4.31
  -8 -10   7    7.42    4.12
   8 -10  -7   14.68    5.18
  -8  10  -7   16.75    5.70
  -8  10   8    6.40    3.36
   8 -10  -8   10.21    4.78
  -8  10  -8    9.42    4.34
  -8 -10   8    7.65    4.66
  -8  10  -8   14.85    5.63
   8 -10  -9    3.05    3.20
  -8  10   9    6.07    3.78
  -8  10  -9    5.09    3.73
  -8 -10   9    7.31    4.57
  -8  10  -9   16.80    6.12
  -8  10  10    2.32    2.65
  -8  10 -10    6.74    4.65
  -8 -10  10   -3.03    3.52
  -8  10 -10    2.55    3.88
  -8  10 -11   -0.50    3.41
  -8  10 -11    6.07    5.04
  -8  10 -12    8.72    3.99
  -8  10 -13    3.97    4.17
  -8  11  -5    0.54    3.39
   8 -11  -6    7.49    5.23
  -8  11  -6    7.29    4.22
  -8  11  -7    6.21    4.58
  -8  11  -8    5.84    3.76
  -8  11  -9   16.38    5.44
  -8  11 -10   48.58    9.21
  -9   0   0    0.58    3.32
  -9   0  -1    3.90    4.65
  -9   0   1    2.80    4.27
  -9   0  -2    9.46    4.75
  -9   0   2    0.44    4.09
  -9   0  -3   -3.92    4.54
  -9   0   3   -1.58    4.05
  -9   0   4    7.09    3.48
  -9   0  -4    4.25    2.93
  -9   0  -4   12.83    5.01
  -9   0   5   -1.10    3.45
  -9   0  -5    0.69    3.03
  -9   0  -5    9.51    6.03
  -9   0   6   49.57    8.15
  -9   0   6   43.73    6.21
  -9   0  -6   45.89    7.36
  -9   0   7   -1.74    3.29
  -9   0   7   -2.03    2.58
  -9   0  -7   -3.28    3.77
  -9   0   8   13.91    4.74
  -9   0   8   13.37    3.57
  -9   0  -8   16.83    5.44
  -9   0   9    3.56    3.60
  -9   0  -9   -0.94    3.43
   9   0  -9    1.53    4.03
  -9   0  10   13.17    5.40
  -9   0 -10   15.92    5.97
  -9   0 -10    7.25    4.43
   9   0 -10   13.40    6.33
  -9   0  11   -1.43    2.51
  -9   0 -11    2.40    4.61
   9   0 -11   12.50    6.37
  -9   0 -11    5.06    3.92
  -9   0  12    3.00    4.08
  -9   0 -12    8.50    4.93
   9   0 -12    7.45    4.93
  -9   0 -12    3.50    3.93
  -9   0  13   -5.29    4.53
  -9   0 -13   -1.77    3.93
   9   0 -13   -7.49    5.27
  -9   0 -13    2.20    3.33
  -9   0 -14   36.03    7.83
   9   0 -14   31.14    7.40
  -9   0 -14   39.15    7.86
  -9   0 -15   -0.90    3.60
   9   0 -15    3.22    3.50
  -9   0 -15   -2.26    4.14
  -9   0 -16    3.33    4.15
   9   0 -16   -0.78    3.68
  -9   0 -16   -0.91    4.44
  -9   0 -17   -1.44    4.49
   9   0 -17   -0.46    3.67
  -9   0 -17   -1.46    4.41
  -9   0 -18   58.62   10.46
  -9   1   0   -2.30    4.59
  -9  -1   0   -5.55    4.80
  -9   1  -1  181.87   15.07
  -9  -1  -1  151.01   13.79
  -9   1   1  170.72   14.73
  -9  -1   1  166.01   14.41
  -9   1  -2  473.35   24.02
  -9  -1  -2  493.81   24.01
  -9   1   2  450.59   23.38
  -9  -1   2  453.86   22.99
  -9   1  -3   -0.71    4.15
  -9  -1  -3    1.36    3.98
  -9   1   3  -12.01    6.87
  -9  -1   3   -8.54    6.18
  -9   1  -4  162.12   12.20
  -9   1  -4  158.21   14.05
  -9  -1  -4  168.78   14.44
  -9   1   4  147.81   14.08
  -9  -1   4  161.83   14.18
  -9   1   5   63.92    9.68
  -9  -1   5   53.40    8.61
  -9  -1   5   61.06    7.80
  -9   1  -5   64.27    8.33
  -9  -1  -5   60.27    8.58
  -9   1  -5   50.58    8.78
  -9  -1  -5   55.97    8.92
  -9  -1   6   92.93    9.06
  -9   1   6   99.58    8.52
  -9  -1  -6   98.34   10.37
  -9   1  -6  105.57   10.22
  -9   1   6  104.85   11.74
  -9  -1   6   96.97   11.08
  -9   1   7   -5.81    4.59
  -9  -1   7    1.07    3.83
  -9  -1   7   -0.18    2.53
  -9  -1  -7    2.62    3.74
  -9   1  -7    3.99    3.52
  -9  -1   8  180.83   12.45
  -9  -1  -8  201.92   15.28
  -9   1  -8  182.99   14.29
  -9   1   8  182.73   15.56
  -9  -1   8  181.35   15.49
  -9  -1   9  104.75    9.56
  -9   1  -9  122.01   13.30
   9   1  -9  112.57   12.90
   9  -1  -9  108.84   12.72
  -9  -1  -9  108.83   11.63
  -9   1  -9   94.08   10.92
  -9   1   9   99.79   11.70
  -9  -1   9   98.16   11.73
  -9  -1  10  125.25   10.27
  -9   1 -10  117.63   13.05
   9   1 -10  141.80   14.20
   9  -1 -10  115.17   12.93
  -9  -1 -10  130.24   12.71
  -9   1 -10  121.55   12.22
  -9   1  10  106.83   12.23
  -9  -1  10  127.80   12.80
  -9   1  11   19.92    6.19
  -9  -1  11   16.12    5.13
  -9   1 -11   24.40    7.42
   9   1 -11   18.27    6.45
  -9  -1 -11   13.76    5.66
   9  -1 -11   33.73    8.94
  -9   1 -11   16.33    5.55
   9   1 -12  121.73   13.69
   9  -1 -12  116.74   13.24
  -9  -1 -12  116.78   13.24
  -9   1 -12  116.53   13.16
  -9  -1 -12  128.49   13.18
  -9   1 -12   99.73   11.68
  -9   1  12  115.15   12.85
  -9  -1  12  112.41   12.48
  -9   1  13   41.22    7.62
  -9  -1  13   39.25    7.72
  -9  -1 -13   52.54    9.42
  -9   1 -13   53.25    9.38
   9   1 -13   53.26    9.56
   9  -1 -13   50.97    9.90
  -9  -1 -13   52.53    9.26
  -9   1 -13   46.83    8.14
  -9  -1 -14    2.28    4.54
  -9   1 -14   18.89    6.51
   9   1 -14    5.27    4.50
   9  -1 -14    7.64    4.93
  -9  -1 -14    5.34    4.82
  -9   1 -14    3.42    3.92
  -9  -1 -15    0.46    3.96
  -9   1 -15    8.09    4.99
   9   1 -15    6.17    5.28
   9  -1 -15   10.29    4.88
  -9  -1 -15   -0.58    3.82
  -9   1 -15   10.50    5.51
  -9  -1 -16   73.58   11.06
  -9   1 -16   74.60   11.05
   9   1 -16   67.47   10.61
   9  -1 -16   71.41   11.08
  -9  -1 -16   69.50   10.70
  -9   1 -16   69.82   10.32
  -9  -1 -17   25.21    7.57
  -9   1 -17   19.15    7.03
   9   1 -17   13.98    5.42
   9  -1 -17   20.11    6.41
  -9  -1 -17   14.01    5.87
  -9   1 -17   21.70    6.93
  -9  -1 -18    5.97    5.26
  -9   1 -18    5.27    4.27
  -9   1 -19    0.53    4.32
  -9   2   0    0.41    3.27
  -9  -2   0   -9.60    4.68
  -9   2  -1    2.13    3.69
  -9  -2  -1   -0.95    3.86
  -9   2   1   -4.56    4.98
  -9  -2   1   -1.89    4.18
  -9   2  -2    2.23    3.59
  -9  -2  -2   -2.03    3.28
  -9   2   2   -4.42    4.33
  -9  -2   2   -4.76    3.90
  -9  -2   3   -4.00    4.85
  -9   2  -3    3.23    3.20
  -9   2  -3    6.76    5.38
  -9  -2  -3    6.41    4.21
  -9   2   3   -4.59    5.00
  -9   2   4   -0.07    3.68
  -9  -2   4    8.08    4.73
  -9   2  -4    7.05    3.26
  -9   2  -4   10.16    5.29
  -9  -2  -4    8.39    4.22
  -9   2   5   35.19    7.04
  -9  -2   5   34.33    7.03
  -9  -2   5   43.89    6.96
  -9   2  -5   37.99    5.88
  -9   2  -5   61.04    9.87
  -9  -2  -5   51.44    8.54
  -9   2   6   18.64    6.15
  -9  -2   6   10.54    4.01
  -9  -2   6   10.08    3.60
  -9  -2  -6   12.97    4.86
  -9   2  -6   16.41    4.91
  -9  -2  -6   27.96    7.21
  -9   2   7   22.69    5.90
  -9  -2   7   24.51    5.86
  -9  -2   7   25.13    5.08
  -9  -2  -7   25.05    6.04
  -9   2  -7   28.12    5.77
  -9   2   8    3.88    4.25
  -9  -2   8    7.91    4.08
  -9  -2   8    3.31    2.48
  -9   2  -8    4.15    4.62
  -9  -2  -8    6.35    4.11
  -9   2  -8    6.41    4.11
  -9   2   9   17.17    5.70
  -9  -2   9   23.75    5.87
  -9  -2   9   28.78    5.73
  -9   2  -9   26.81    7.03
  -9  -2  -9   16.21    5.51
  -9   2  -9   20.95    5.29
   9   2  -9   35.28    7.53
  -9   2  10    6.29    4.14
  -9  -2  10    7.72    4.36
  -9  -2  10    8.38    3.60
  -9   2 -10   10.19    5.20
  -9  -2 -10   14.96    5.27
   9   2 -10   13.95    5.53
  -9   2 -10   12.10    4.49
   9  -2 -10   22.01    7.10
  -9   2  11    2.89    3.79
  -9  -2  11   -1.84    3.67
  -9  -2  11   -1.96    3.00
  -9   2 -11    1.52    3.93
  -9  -2 -11   -1.82    3.52
   9   2 -11    6.68    5.45
   9  -2 -11    9.91    6.31
  -9   2 -11    1.25    3.42
  -9   2  12    2.12    3.75
  -9  -2  12    1.17    3.06
  -9  -2  12    2.19    3.12
  -9   2 -12    7.49    4.77
   9   2 -12    4.50    4.29
  -9  -2 -12    4.07    3.77
   9  -2 -12   11.27    6.19
  -9   2 -12   -1.76    3.74
  -9   2  13    1.00    2.67
  -9  -2 -13   -2.41    4.21
  -9   2 -13    3.05    3.72
   9   2 -13   -1.90    4.52
   9  -2 -13    3.24    4.41
  -9  -2 -13   -3.60    4.16
  -9   2 -13   -1.12    3.79
  -9  -2 -14    3.97    5.02
  -9   2 -14    6.84    4.76
   9   2 -14    6.48    4.25
   9  -2 -14    7.48    5.92
  -9  -2 -14    1.84    4.64
  -9   2 -14    1.92    3.62
  -9  -2 -15   64.67   10.43
  -9   2 -15   52.85    9.44
   9   2 -15   52.85    9.26
   9  -2 -15   62.91   10.57
  -9  -2 -15   59.34   10.08
  -9   2 -15   66.34    9.92
  -9  -2 -16    0.78    4.47
  -9   2 -16    1.70    4.39
   9   2 -16    2.70    3.96
   9  -2 -16   -1.23    4.02
  -9  -2 -16    3.02    4.82
  -9   2 -16    4.09    4.49
  -9  -2 -17   34.83    8.13
  -9   2 -17   64.50   11.02
   9   2 -17   47.76    9.36
   9  -2 -17   43.06    9.10
  -9  -2 -17   60.16   10.37
  -9   2 -17   50.07    9.00
  -9   2 -18   -1.49    3.59
  -9   2 -19    2.85    3.30
  -9   3   0   -7.90    5.63
  -9  -3   0   -6.12    5.01
  -9   3  -1  182.53   15.13
  -9  -3  -1  193.45   14.87
  -9   3   1  172.49   14.90
  -9  -3   1  183.74   14.32
  -9   3  -2   -3.30    4.22
  -9  -3  -2   -1.70    3.67
  -9   3   2   -8.85    5.77
  -9  -3   2   -1.92    4.86
  -9  -3   3   45.40    7.33
  -9   3  -3   40.88    5.98
  -9   3  -3   38.41    7.76
  -9  -3  -3   47.11    7.83
  -9   3   3   24.07    5.51
  -9   3   4   12.58    4.78
  -9  -3   4   14.37    5.04
  -9  -3   4   16.59    5.08
  -9   3  -4   13.09    3.83
  -9   3  -4   14.25    4.98
  -9  -3  -4   19.25    5.86
  -9  -3   5  176.73   13.60
  -9   3  -5  181.80   12.43
  -9   3  -5  184.30   15.68
  -9  -3  -5  187.00   14.88
  -9   3   5  183.22   15.55
  -9  -3   5  167.10   13.83
  -9   3   6   -0.11    3.33
  -9  -3   6    1.67    3.18
  -9  -3   6    0.77    3.14
  -9   3  -6    6.13    3.89
  -9   3  -6   10.33    6.10
  -9  -3  -6   12.71    6.01
  -9   3   7    4.29    4.01
  -9  -3   7    0.39    3.20
  -9  -3   7    5.81    3.14
  -9   3  -7    7.22    4.11
  -9  -3  -7    5.15    4.14
  -9   3  -7    5.22    3.24
  -9   3   8   13.79    5.54
  -9  -3   8    5.29    3.56
  -9  -3   8    3.99    3.01
  -9   3  -8   11.77    5.37
  -9  -3  -8    9.94    5.42
  -9   3  -8    9.76    4.38
   9   3  -8   23.39    7.25
  -9  -3   9  219.84   15.30
  -9   3  -9  217.55   16.80
   9   3  -9  226.67   17.20
  -9  -3  -9  248.54   17.89
  -9   3  -9  214.14   15.15
  -9   3   9  233.10   17.87
  -9  -3   9  223.03   16.55
  -9   3  10   29.97    7.43
  -9  -3  10   27.56    6.39
  -9  -3  10   35.98    6.63
  -9   3 -10   40.82    8.49
  -9  -3 -10   30.70    7.14
   9   3 -10   44.58    8.45
  -9   3 -10   34.34    6.64
  -9   3  11    7.01    4.02
  -9  -3  11    4.31    2.88
  -9  -3  11    9.47    3.91
  -9   3 -11    8.43    4.89
  -9  -3 -11   11.49    5.67
   9   3 -11   12.74    5.80
   9  -3 -11    9.17    5.64
  -9   3 -11    4.66    3.44
  -9   3  12    1.46    3.80
  -9  -3  12    5.56    3.49
  -9   3 -12   10.21    5.05
  -9  -3 -12    8.31    4.84
   9   3 -12    8.01    5.13
   9  -3 -12    7.67    5.03
  -9   3 -12   -0.07    3.61
  -9   3  13   24.18    6.30
  -9  -3  13   33.14    6.24
  -9   3 -13   36.92    8.12
   9   3 -13   38.58    7.80
  -9  -3 -13   22.51    6.22
   9  -3 -13   38.70    8.69
  -9   3 -13   24.07    5.81
  -9  -3  14    9.02    3.74
  -9   3 -14   11.33    6.09
   9   3 -14    3.83    3.55
  -9  -3 -14    5.88    4.73
   9  -3 -14   -0.16    3.30
  -9   3 -14    2.34    3.29
   9  -3 -15   93.84   13.08
  -9   3 -15  100.83   12.77
  -9   3 -15   83.39   10.77
   9   3 -15   89.24   11.81
  -9  -3 -15   92.61   12.07
  -9  -3 -16    4.49    4.92
  -9   3 -16   13.13    6.73
   9   3 -16    6.83    5.15
   9  -3 -16    6.11    5.25
  -9  -3 -16   18.03    6.94
  -9   3 -16    1.95    4.16
  -9  -3 -17    1.80    4.13
  -9   3 -17   13.98    5.52
   9   3 -17    4.30    4.81
  -9  -3 -17    7.24    5.57
  -9   3 -17   11.52    5.20
  -9   3 -18   12.67    5.36
  -9   3 -19   70.32   10.95
  -9   4   0   -2.64    4.42
  -9  -4   0   -6.19    4.42
  -9   4  -1    3.70    3.50
  -9  -4  -1   -0.44    3.61
  -9   4   1   -3.66    4.47
  -9  -4   1   -5.66    5.13
  -9  -4   2   10.36    3.94
  -9   4  -2    8.53    4.58
  -9  -4  -2    8.64    4.11
  -9   4   2   10.16    3.64
  -9  -4   3    2.98    2.99
  -9  -4   3    6.20    3.97
  -9   4  -3    3.35    4.01
  -9  -4  -3    1.28    2.96
  -9   4   4   -0.81    2.75
  -9  -4   4    2.82    2.76
  -9  -4   4    1.72    2.68
  -9   4  -4    2.05    3.30
  -9  -4  -4    1.98    3.33
  -9   4   5   31.53    6.93
  -9  -4   5   30.18    6.40
  -9  -4   5   18.11    5.00
  -9  -4  -5   26.46    5.98
  -9   4  -5   23.04    6.87
  -9  -4  -5   28.26    6.49
  -9   4   6   14.05    4.92
  -9  -4   6    9.10    3.74
  -9  -4   6   14.35    5.05
  -9   4  -6   18.06    5.38
  -9  -4  -6    8.12    3.38
  -9   4  -6   12.76    4.05
  -9   4  -6   21.04    7.07
  -9  -4  -6   22.86    5.97
  -9   4   7   12.23    5.59
  -9  -4   7    6.09    3.89
  -9  -4   7    6.47    3.95
  -9   4  -7   11.11    5.15
  -9  -4  -7    5.43    4.08
  -9   4  -7   13.18    4.04
  -9  -4  -7   23.27    6.40
  -9  -4   8   89.72   10.39
  -9   4  -8   88.97   10.62
  -9  -4  -8   78.78   10.54
  -9   4  -8   75.81    8.53
  -9   4   8   79.64   10.79
  -9  -4   8   75.65    9.86
  -9  -4  -8   81.10   10.29
  -9   4   9   11.35    5.45
  -9  -4   9   14.81    5.15
  -9  -4   9   12.40    4.41
  -9   4  -9   13.34    5.49
  -9  -4  -9    9.59    4.20
  -9  -4  -9   14.07    5.79
   9   4  -9   18.71    6.47
  -9   4  -9   11.08    3.69
  -9   4  10    6.10    4.27
  -9  -4  10    0.85    2.77
  -9  -4  10    0.12    2.97
  -9   4 -10    1.60    3.89
  -9  -4 -10    2.34    3.09
  -9  -4 -10    7.46    4.99
   9   4 -10    5.03    4.97
  -9   4 -10    1.39    2.69
  -9   4  11   -1.29    3.34
  -9  -4  11   -1.09    3.23
  -9  -4  11   -2.52    2.86
  -9   4 -11   -0.64    3.73
  -9  -4 -11   -0.63    2.73
  -9  -4 -11   -0.09    3.61
   9   4 -11   12.45    5.69
  -9   4 -11    4.14    3.59
  -9   4  12    2.60    2.89
  -9  -4  12    2.48    2.58
  -9   4 -12    0.41    3.67
  -9  -4 -12    3.06    2.69
  -9  -4 -12    3.11    4.03
   9   4 -12    6.89    4.39
   9  -4 -12   13.05    6.01
  -9   4 -12    2.66    2.87
  -9   4  13   -1.78    3.80
  -9  -4  13    3.65    3.10
  -9   4 -13    7.76    4.95
  -9  -4 -13   -0.02    2.53
  -9  -4 -13   -2.95    4.98
   9   4 -13    9.88    5.56
   9  -4 -13    6.51    6.06
  -9   4 -13   -1.44    3.28
  -9  -4  14    9.58    3.99
  -9   4 -14   11.91    5.46
  -9  -4 -14    9.57    3.83
   9   4 -14    5.18    3.37
  -9  -4 -14    2.51    4.21
   9  -4 -14   18.21    6.77
  -9   4 -14    0.37    3.39
  -9  -4  15   -2.78    3.13
  -9   4 -15   -0.01    4.49
  -9  -4 -15    3.35    2.48
   9   4 -15    3.71    4.36
  -9  -4 -15   -1.18    3.47
   9  -4 -15   -0.73    3.97
  -9   4 -15    0.21    3.47
  -9   4 -16   -0.29    4.27
   9   4 -16   -3.23    4.22
  -9  -4 -16    0.66    4.25
   9  -4 -16    2.48    5.01
  -9   4 -16    1.69    3.55
   9   4 -17   -1.18    4.00
  -9   4 -17   -2.24    3.92
  -9   4 -18    6.62    3.89
  -9   4 -19    1.10    3.49
   9  -5   0   -9.22    4.51
  -9   5   0   -1.91    4.52
  -9  -5   0   -5.81    4.33
   9  -5   1   -4.71    3.50
  -9  -5  -1   -3.83    3.86
  -9   5  -1   -4.87    4.64
  -9  -5  -1   -3.26    3.47
  -9   5   1   -9.23    5.48
  -9  -5   1   -2.34    3.41
  -9  -5   2   97.74   11.13
  -9   5  -2   98.95   11.70
  -9  -5  -2  103.03   10.81
  -9   5   2  100.91   11.49
  -9  -5   2  104.09   10.63
  -9  -5  -2   99.16   11.61
  -9   5   3    2.73    4.14
  -9  -5   3   15.24    4.61
  -9  -5   3   21.13    6.04
  -9  -5  -3    9.65    3.93
  -9   5  -3    5.93    4.22
  -9  -5  -3   13.45    4.56
  -9   5   4    0.25    2.74
  -9  -5   4    3.86    2.98
  -9  -5   4    1.68    3.49
  -9  -5  -4    1.10    3.23
  -9   5  -4   -0.09    3.06
  -9  -5  -4   -3.46    2.78
  -9   5   5    3.19    4.18
  -9  -5   5   -1.95    2.64
  -9  -5   5    3.04    3.92
  -9  -5  -5   -4.72    4.73
  -9   5  -5    4.99    3.59
  -9  -5  -5    0.07    2.60
  -9   5   6   45.02    8.26
  -9  -5   6   48.85    7.36
  -9  -5   6   49.12    8.08
  -9   5  -6   44.49    7.37
  -9  -5  -6   42.82    7.50
  -9   5  -6   46.12    8.27
  -9  -5  -6   62.06    8.72
  -9   5   7    2.69    3.88
  -9  -5   7    1.50    2.57
  -9  -5   7    0.04    3.23
  -9  -5  -7   -7.08    4.82
  -9   5  -7    1.36    3.71
  -9   5  -7   12.67    5.99
  -9  -5  -7   14.59    5.50
  -9  -5   8   95.02   10.94
  -9   5  -8   84.05   10.35
  -9   5   8   88.85   11.46
  -9  -5   8   93.47   10.40
  -9  -5  -8   88.04   11.34
  -9   5   9   12.84    5.18
  -9  -5   9   16.74    5.04
  -9  -5   9   16.14    5.16
  -9  -5  -9   10.64    4.11
  -9   5  -9    9.38    4.87
  -9  -5  -9   15.73    6.24
   9   5  -9   18.59    6.31
  -9   5  10   56.61    9.54
  -9  -5  10   53.83    8.39
  -9  -5  10   49.87    8.61
  -9  -5 -10   49.87    8.28
  -9   5 -10   55.05    8.74
  -9  -5 -10   61.14   10.19
   9   5 -10   59.36    9.53
  -9   5  11   12.14    4.64
  -9  -5  11   21.52    5.45
  -9  -5 -11   14.92    4.85
  -9   5 -11   24.50    6.74
  -9  -5 -11   31.85    7.86
   9   5 -11   24.61    6.56
  -9   5 -11   21.43    5.23
  -9  -5  12   88.15   10.56
  -9  -5 -12   73.29    9.92
   9   5 -12   79.90   10.93
  -9   5 -12   96.37   12.05
  -9   5 -12   84.50    9.79
  -9  -5 -12   87.81   11.91
  -9   5  12   90.45   11.93
  -9   5  13   44.23    9.16
  -9  -5  13   28.93    6.70
  -9  -5 -13   24.70    6.25
  -9   5 -13   35.60    8.36
  -9  -5 -13   20.67    6.97
   9   5 -13   30.36    7.56
  -9   5 -13   23.07    5.81
  -9  -5  14   27.60    6.62
  -9  -5 -14   26.73    6.29
  -9   5 -14   24.55    6.98
  -9  -5 -14   29.21    7.71
   9   5 -14   29.88    7.44
   9  -5 -14   42.67    8.68
  -9   5 -14   25.41    6.13
  -9  -5  15   15.91    5.16
  -9  -5 -15   21.21    5.82
  -9   5 -15   25.40    7.33
   9   5 -15   28.23    7.19
   9  -5 -15   32.97    8.72
  -9   5 -15   22.78    6.40
  -9  -5  16  107.57   11.84
   9   5 -16  113.28   13.28
  -9   5 -16  132.97   15.21
  -9   5 -16  111.41   12.45
  -9  -5  17    7.73    4.27
   9   5 -17    1.62    3.82
  -9   5 -17    3.76    3.89
  -9   5 -18    5.59    4.31
  -9  -6   0   -0.37    3.55
   9  -6   0    1.69    3.22
  -9   6   0   -7.91    5.33
  -9  -6   0   -1.32    3.30
  -9  -6   1    8.43    3.91
  -9  -6   1   11.11    4.98
  -9  -6  -1    3.74    2.89
  -9  -6   1    3.62    2.92
   9  -6  -1    6.13    3.10
  -9   6  -1    5.97    3.91
  -9   6   1    2.58    3.07
  -9  -6  -1    1.94    2.60
  -9  -6   2    7.09    3.50
  -9  -6   2   -4.33    3.79
  -9  -6  -2   -3.81    3.87
   9  -6  -2   -4.24    4.13
  -9   6  -2   -4.23    4.08
  -9  -6  -2   -1.26    2.98
  -9   6   2   -4.33    5.64
  -9   6   3   12.86    4.62
  -9  -6   3   16.71    4.60
  -9  -6   3   18.05    5.29
  -9  -6  -3   11.97    5.01
   9  -6  -3   11.76    4.02
  -9   6  -3    5.49    3.64
  -9  -6  -3   15.47    4.97
  -9   6   4    5.61    3.69
  -9  -6   4   -4.15    3.07
  -9  -6   4   -1.26    4.05
   9  -6  -4   -4.42    4.15
  -9  -6  -4   -0.98    3.33
  -9   6  -4    6.44    4.78
  -9  -6  -4   -4.17    3.37
  -9   6   5    1.83    3.31
  -9  -6   5    6.24    3.51
  -9  -6   5    4.38    3.81
  -9  -6  -5    1.82    3.42
   9  -6  -5    0.80    3.24
  -9   6  -5   10.55    5.22
  -9  -6  -5    1.04    2.79
  -9   6   6   -1.40    2.99
  -9  -6   6   -1.87    2.63
  -9  -6   6    1.49    3.14
  -9  -6  -6   -5.45    4.72
  -9   6  -6   -6.90    4.40
  -9   6  -6    3.76    3.83
  -9  -6  -6   -1.35    2.99
  -9   6   7   -3.78    4.10
  -9  -6   7   -2.95    3.07
  -9  -6   7   -1.25    3.98
  -9  -6  -7   -2.31    3.61
  -9   6  -7   -6.85    4.22
  -9   6  -7    6.61    4.88
  -9  -6  -7    2.83    3.24
  -9   6   8   15.89    5.18
  -9  -6   8   17.59    4.79
  -9  -6   8   17.88    5.07
  -9  -6  -8   13.55    4.82
  -9   6  -8   21.49    5.87
  -9   6  -8   30.96    7.96
  -9  -6  -8   23.50    5.90
  -9   6   9    1.63    3.46
  -9  -6   9    2.80    3.97
  -9  -6  -9   -2.47    3.96
  -9   6  -9    2.48    3.08
  -9   6  10    1.52    3.58
  -9  -6  10    2.89    3.38
  -9  -6 -10   -2.19    3.03
  -9   6 -10    1.77    3.62
   9   6 -10    3.55    4.10
  -9   6  11    6.41    4.35
  -9  -6  11   -0.39    2.74
  -9  -6 -11   -2.64    4.01
  -9   6 -11   -0.23    3.68
  -9  -6 -11    0.11    4.37
   9   6 -11    6.73    4.52
  -9   6  12   -2.83    3.82
  -9  -6  12    7.70    4.95
  -9  -6 -12    1.15    3.19
  -9   6 -12   -3.04    4.27
  -9  -6 -12    4.99    4.48
   9   6 -12    6.44    4.86
  -9   6  13    2.82    3.68
  -9  -6  13    6.96    3.96
  -9  -6 -13    1.76    3.24
  -9   6 -13   11.18    5.43
  -9  -6 -13   10.80    4.84
   9   6 -13   11.02    5.22
  -9  -6  14    1.71    3.55
  -9  -6 -14    3.59    3.56
  -9   6 -14   -2.87    4.10
   9   6 -14    2.70    3.47
  -9  -6  15    2.04    3.57
  -9  -6 -15    3.13    3.62
  -9   6 -15   -3.58    4.56
   9   6 -15    5.01    4.12
  -9  -6  16    0.78    2.92
  -9  -6 -16    1.08    3.04
   9   6 -16    4.18    4.10
  -9  -6  17   22.72    6.42
  -9  -6  18   18.41    5.91
  -9  -7   0   -7.81    5.22
   9  -7   0    0.58    2.77
  -9  -7   0   -6.74    4.52
  -9   7   0   -4.23    4.23
   9  -7  -1   19.88    5.29
  -9  -7   1   13.88    5.45
  -9  -7  -1   24.06    7.37
  -9  -7  -1   25.59    6.54
  -9  -7   1   15.73    5.55
  -9   7  -1   15.13    5.19
  -9   7   1   10.11    4.08
  -9   7   2   16.84    4.63
   9  -7  -2   20.99    5.20
  -9  -7   2   19.31    6.15
  -9  -7  -2   18.93    6.60
  -9  -7   2   28.79    7.19
  -9   7  -2   18.56    5.87
  -9  -7   3  112.10   12.50
  -9   7  -3   94.40   11.76
  -9   7   3  106.83   12.59
  -9  -7  -3  109.41   12.55
   9  -7  -3  120.53   12.02
  -9  -7   3  116.88   13.14
  -9   7   4    5.22    4.47
  -9  -7   4    2.59    3.76
  -9  -7  -4   -1.38    3.16
   9  -7  -4   -1.07    3.49
  -9   7  -4    1.61    3.73
  -9  -7   5   91.98   11.57
  -9  -7  -5   81.84   10.98
  -9   7  -5   74.95    9.10
   9  -7  -5   73.41    9.83
  -9   7   5   71.94   10.34
  -9   7  -5   73.46   10.52
  -9   7   6   12.87    5.17
  -9  -7   6   15.64    5.99
  -9  -7  -6   12.73    5.04
  -9   7  -6   11.19    4.10
   9  -7  -6   18.18    5.53
  -9   7  -6   11.99    5.38
  -9   7   7    5.43    3.92
  -9  -7   7    8.60    4.65
  -9  -7  -7   14.63    5.93
  -9   7  -7    8.76    4.21
   9  -7  -7    4.73    3.52
  -9   7  -7   11.23    5.06
  -9   7   8    1.66    3.11
  -9  -7   8    1.10    3.23
  -9  -7  -8    1.60    3.85
  -9   7  -8    3.82    2.83
   9  -7  -8   -9.87    5.70
  -9   7  -8    2.75    4.45
  -9   7   9   80.98   11.22
  -9  -7   9   67.35   10.25
  -9   7  -9   80.75   10.36
   9  -7  -9   75.86   10.69
  -9   7  -9   97.56   12.36
  -9  -7  -9   77.80   10.94
  -9   7  10   20.78    6.29
  -9  -7  10   25.62    6.69
  -9  -7 -10   31.52    7.53
   9  -7 -10   18.65    6.24
  -9   7 -10   24.86    6.23
   9   7 -10   27.95    6.94
  -9   7  11    3.00    3.06
  -9  -7  11    3.01    3.22
  -9  -7 -11    6.23    4.42
   9  -7 -11    1.21    3.56
  -9   7 -11    1.29    3.75
   9   7 -11    5.73    4.24
  -9   7  12   35.19    7.85
  -9  -7  12   29.44    7.25
  -9  -7 -12   32.60    7.40
   9  -7 -12   16.64    5.89
  -9   7 -12   30.38    7.30
   9   7 -12   21.38    6.10
  -9  -7  13  122.39   13.65
   9   7 -13  117.58   12.89
  -9   7 -13  119.89   13.30
  -9  -7 -13  107.41   13.02
  -9  -7  14   -0.18    3.27
  -9  -7 -14    3.76    3.66
  -9   7 -14    2.94    3.55
   9   7 -14    1.96    3.38
  -9  -7  15   25.83    6.74
  -9  -7 -15   34.13    7.61
   9   7 -15   21.09    6.57
  -9  -7 -16   45.98    9.08
   9   7 -16   43.08    8.61
  -9  -8   0   -3.16    4.40
  -9  -8   0   -1.50    3.90
  -9   8   0    0.29    3.61
   9  -8  -1    7.91    4.09
  -9  -8   1    2.01    4.11
  -9  -8  -1    4.77    4.73
  -9  -8  -1   -2.95    4.15
  -9  -8   1    5.69    4.28
  -9   8  -1   -1.36    4.60
  -9   8   1   10.14    5.07
  -9   8   2    5.90    4.39
  -9  -8   2    2.56    4.16
  -9  -8  -2    3.52    4.31
  -9  -8  -2    2.26    3.55
  -9  -8   2    0.02    3.78
   9  -8  -2    9.20    4.18
  -9   8  -2    0.75    3.62
  -9   8   3   12.92    5.26
  -9  -8   3    3.35    3.58
  -9  -8  -3    7.06    4.33
   9  -8  -3   15.33    5.44
  -9  -8   3   17.95    6.20
  -9   8  -3    9.86    4.75
  -9   8   4    0.39    3.35
  -9  -8   4   -0.73    3.43
   9  -8  -4    3.62    4.38
  -9  -8  -4    2.28    3.11
  -9  -8   4    5.10    3.93
  -9   8  -4   -2.43    4.73
  -9   8   5   26.38    6.72
   9  -8  -5   36.15    7.27
  -9  -8   5   21.61    6.54
  -9  -8  -5   34.57    7.57
  -9  -8   5   40.31    8.31
  -9   8  -5   24.73    6.77
  -9   8   6   13.06    5.34
   9  -8  -6    9.23    4.15
  -9  -8  -6    8.56    4.78
  -9  -8   6    9.14    4.63
  -9   8  -6   19.04    6.33
   9  -8  -7   -0.78    3.60
  -9   8   7    3.58    3.98
  -9  -8  -7   -0.20    3.41
  -9  -8   7    0.60    3.75
  -9   8  -7    9.14    5.05
  -9   8   8    7.81    4.42
  -9  -8  -8    5.94    4.67
  -9  -8   8   -3.32    4.69
  -9   8  -8    7.51    4.15
  -9   8  -8    7.64    5.32
   9  -8  -8    3.66    3.66
  -9   8   9    5.75    3.71
  -9  -8  -9   12.61    5.11
  -9  -8   9   14.87    5.80
  -9   8  -9    7.86    4.40
  -9   8  -9   25.97    7.20
   9  -8  -9    9.17    4.75
  -9   8  10    0.64    3.05
  -9  -8 -10   -2.21    3.68
  -9  -8  10   10.48    4.77
  -9   8 -10    7.82    4.53
  -9   8 -10   15.57    6.09
   9  -8 -10    4.15    3.94
  -9   8  11   -0.55    4.06
  -9  -8 -11   -0.75    3.54
  -9  -8  11    2.09    4.35
  -9   8 -11    2.87    3.48
  -9   8  12    4.85    3.82
  -9  -8 -12    2.60    3.86
  -9   8 -12    0.26    3.41
  -9   8 -13    0.61    3.37
  -9   8 -14    6.60    4.72
  -9  -9   0    3.67    4.75
  -9  -9   0    0.90    2.94
  -9   9   0   -3.19    4.27
  -9   9   1   22.63    6.07
  -9  -9   1   35.91    8.01
  -9  -9  -1   46.09    9.50
  -9   9  -1   28.47    6.77
  -9   9   2   13.72    5.36
  -9  -9   2   12.04    4.87
   9  -9  -2   10.03    5.07
  -9   9  -2   10.10    4.54
  -9   9   3    4.50    3.95
  -9  -9   3    4.94    4.64
   9  -9  -3   14.64    5.72
  -9   9  -3    2.78    3.46
  -9   9   4   -0.48    3.22
   9  -9  -4    5.48    4.07
  -9   9  -4   -1.05    3.87
  -9   9   5   -0.28    3.53
   9  -9  -5    3.45    4.06
  -9   9  -5    0.95    3.43
   9  -9  -6   81.09   11.28
  -9   9   6   77.60   10.91
  -9   9  -6   92.14   12.05
  -9   9   7   14.13    5.34
   9  -9  -7   14.40    5.59
  -9   9  -7    8.33    4.91
  -9   9   8    8.22    4.77
   9  -9  -8    8.95    4.70
  -9   9  -8   18.70    6.64
  -9   9   9   62.17   10.16
  -9   9  -9   68.32   10.61
  -9   9  10    6.04    3.75
  -9   9 -10    8.29    5.33
  -9  10   0    0.39    2.86
  -9  10   1    9.23    4.46
  -9  10  -1   -5.26    4.95
  -9  10   2    5.46    3.46
  -9  10  -2   -1.15    3.49
  -9  10   3    4.18    4.01
   9 -10  -3   10.47    5.13
  -9  10  -3   -1.71    4.03
  -9  10   4   14.92    5.37
  -9  10  -4    3.18    2.81
  -9  10   5    2.13    2.86
  -9  10  -5   -2.73    4.14
  -9  10   6   -3.74    3.15
   9 -10  -6    5.59    5.14
  -9  10  -6    0.76    3.06
  -9  10   7    4.79    3.90
  -9  10  -7    0.90    2.92
  -9  10   8    6.04    4.62
  -9  10  -8    7.25    5.05
  -9  10   9   30.85    7.64
  -9  10  -9   20.83    6.58
 -10   0   0   95.98   11.76
 -10   0  -1    0.12    3.96
 -10   0   1   -4.41    4.60
 -10   0  -2   30.20    6.45
 -10   0   2   24.78    5.99
 -10   0   3  -11.71    6.49
 -10   0  -3   -4.29    3.96
 -10   0   4   36.28    7.57
 -10   0  -4   34.81    7.59
 -10   0   5    1.86    3.87
 -10   0   5   -1.65    2.95
 -10   0  -5    0.02    4.26
 -10   0   6    2.39    3.54
 -10   0  -6    2.76    2.93
 -10   0  -6    9.16    5.34
 -10   0   7    6.34    4.69
 -10   0  -7    3.59    4.04
 -10   0  -7   15.91    6.87
 -10   0   8   54.73    9.27
 -10   0  -8   50.60    8.39
 -10   0   9    3.37    3.60
 -10   0  -9   -4.93    3.78
 -10   0  10    8.07    4.70
 -10   0 -10    5.00    3.88
 -10   0  11   -0.67    3.17
 -10   0 -11    4.19    4.12
 -10   0  12   52.40    9.22
 -10   0 -12   51.17    9.16
  10   0 -12   57.64   10.20
 -10   0  13    0.73    3.59
 -10   0 -13   -1.77    5.23
 -10   0 -13    1.67    3.87
  10   0 -13    3.40    5.10
 -10   0 -14   19.93    5.93
 -10   0 -15   -5.48    4.17
 -10   0 -16   10.11    5.44
 -10   1   0   -5.75    5.76
 -10  -1   0    0.31    3.87
 -10   1  -1   -1.63    3.52
 -10  -1  -1    1.81    4.38
 -10   1   1   -6.35    5.48
 -10  -1   1   -5.76    4.91
 -10   1  -2   -5.24    4.40
 -10  -1  -2   -8.35    5.76
 -10   1   2   -4.43    3.96
 -10  -1   2   -7.90    5.53
 -10  -1   3    4.12    3.87
 -10   1  -3   13.84    5.53
 -10  -1  -3   11.10    4.79
 -10   1   3   12.18    4.89
 -10   1   4   74.13   10.32
 -10  -1   4   70.78   10.07
 -10   1  -4   84.19   11.39
 -10  -1  -4   67.96    9.92
 -10   1   5    4.31    3.99
 -10  -1   5   13.63    4.76
 -10  -1   5   19.86    4.99
 -10   1  -5   19.25    5.29
 -10   1  -5   32.18    7.60
 -10  -1  -5   21.29    6.45
 -10   1   6   18.11    6.05
 -10  -1   6   20.64    5.41
 -10  -1   6   20.23    4.92
 -10   1  -6   15.42    4.82
 -10   1  -6   37.51    8.74
 -10  -1  -6   25.65    6.89
 -10  -1   7   56.62    9.34
 -10  -1   7   62.70    8.16
 -10  -1  -7   62.93    9.34
 -10   1  -7   65.20    8.99
 -10   1  -7   96.35   12.48
 -10  -1  -7   86.60   11.80
 -10   1   7   73.52   10.65
 -10   1   8   76.37   10.90
 -10  -1   8   78.65   10.95
 -10   1  -8   77.60   10.03
 -10  -1  -8   71.14    9.71
 -10   1   9   12.53    5.13
 -10  -1   9   11.99    5.06
 -10  -1  -9   10.14    4.27
 -10   1  -9   11.65    4.96
 -10   1  10   29.10    7.30
 -10  -1  10   42.17    8.50
 -10  -1 -10   45.87    8.71
 -10   1 -10   39.19    7.73
 -10   1  11   87.13   11.80
  10   1 -11   96.02   12.60
 -10   1 -11   76.74   10.47
 -10  -1 -11   77.98   10.87
 -10  -1  11   83.96   11.45
 -10   1  12    2.50    4.07
 -10  -1  12    1.78    3.26
 -10   1 -12    5.04    4.99
 -10  -1 -12    8.08    5.15
 -10   1 -12   11.91    5.22
  10   1 -12   10.50    5.33
  10  -1 -12   22.54    7.75
 -10   1  13    6.01    3.60
 -10  -1  13    9.21    4.62
 -10   1 -13   10.02    5.65
 -10  -1 -13   10.09    4.69
  10   1 -13   16.94    6.87
 -10   1 -13    7.33    4.12
  10  -1 -13   15.01    6.48
 -10   1 -14   13.61    5.98
 -10  -1 -14   20.28    6.32
 -10   1 -14   14.96    5.29
 -10  -1 -15   12.17    5.83
 -10   1 -15   20.34    6.31
 -10   1 -16   11.28    5.20
 -10   2   0  -16.00    5.84
 -10  -2   0   -2.54    3.50
 -10   2  -1    2.13    3.29
 -10  -2  -1   -1.82    4.00
 -10   2   1  -11.53    5.65
 -10  -2   1   -6.19    4.88
 -10   2  -2   -1.39    3.55
 -10  -2  -2    6.53    4.02
 -10   2   2   -1.12    3.69
 -10  -2   2   -3.32    4.86
 -10  -2   3    3.24    3.68
 -10   2  -3    1.87    4.10
 -10  -2  -3   -0.64    3.00
 -10   2   3   -6.27    4.76
 -10   2   4   38.11    8.10
 -10  -2   4   45.26    8.08
 -10  -2   4   37.27    6.78
 -10   2  -4   50.38    9.01
 -10  -2  -4   49.17    8.66
 -10   2   5    5.58    3.71
 -10  -2   5   11.56    4.64
 -10  -2   5    2.21    2.81
 -10   2  -5    7.59    3.57
 -10   2  -5   15.60    5.87
 -10  -2  -5   13.41    5.87
 -10   2   6    6.06    4.36
 -10  -2   6   10.94    4.75
 -10  -2   6    6.46    3.99
 -10   2  -6    7.86    3.97
 -10   2  -6   20.65    7.01
 -10  -2  -6   25.87    7.21
 -10   2   7    9.93    5.43
 -10  -2   7   10.56    4.75
 -10  -2   7    9.43    4.04
 -10  -2  -7    3.25    4.11
 -10   2  -7    7.84    3.79
 -10   2  -7   25.49    7.41
 -10  -2  -7   29.44    7.56
 -10   2   8   33.98    7.56
 -10  -2   8   34.37    7.55
 -10  -2   8   28.87    5.86
 -10  -2  -8   30.39    7.07
 -10   2  -8   26.76    5.80
 -10   2  -8   41.19    8.61
 -10  -2  -8   48.60    9.34
 -10   2   9    6.78    4.60
 -10  -2   9    4.27    3.17
 -10  -2   9   -0.31    2.63
 -10  -2  -9    0.54    3.49
 -10   2  -9    6.24    3.87
 -10   2  10   38.27    8.02
 -10  -2  10   36.76    7.94
 -10   2 -10   32.82    7.75
 -10  -2 -10   31.46    7.18
 -10   2 -10   39.08    7.29
 -10   2  11   24.10    6.40
 -10  -2  11   26.18    6.84
 -10   2 -11   38.24    8.37
 -10  -2 -11   34.46    7.84
 -10   2 -11   30.57    6.88
  10   2 -11   38.93    8.74
 -10   2  12    2.52    3.52
 -10  -2  12    3.10    3.41
 -10   2 -12    1.93    4.72
 -10  -2 -12    2.99    4.54
 -10   2 -12    5.51    3.90
  10   2 -12   11.52    5.44
 -10   2  13    4.43    4.42
 -10   2 -13    1.72    3.58
 -10  -2 -13   10.23    5.01
  10   2 -13    8.21    5.69
 -10   2 -13    4.62    4.37
  10  -2 -13   13.77    6.48
 -10   2 -14    7.22    4.61
 -10  -2 -14   19.04    6.13
  10   2 -14   18.63    6.45
 -10   2 -14   16.96    5.72
 -10   2 -15   -1.23    3.47
 -10   2 -16   -2.08    4.09
 -10   3   0   -7.45    6.19
 -10  -3   0  -18.47    5.47
 -10   3  -1   -1.06    4.36
 -10  -3  -1   -4.70    5.17
 -10   3   1   -1.86    4.21
 -10  -3   1   -7.77    5.16
 -10  -3   2   -4.94    4.20
 -10   3  -2   -6.22    4.74
 -10  -3  -2    0.86    3.18
 -10   3   2   -8.15    5.92
 -10   3   3   90.14   11.68
 -10  -3   3   93.10   10.71
 -10  -3  -3   95.82   11.43
 -10  -3   3   85.67   10.64
 -10   3  -3   85.79   11.53
 -10   3   4    8.37    4.61
 -10  -3   4    5.62    4.09
 -10  -3   4    6.79    4.57
 -10   3  -4   13.63    6.84
 -10  -3  -4    6.34    4.71
 -10   3   5   38.78    8.15
 -10  -3   5   26.45    6.11
 -10  -3   5   44.83    7.66
 -10   3  -5   42.41    8.78
 -10  -3  -5   47.40    8.66
 -10   3   6   29.48    7.53
 -10  -3   6   23.79    6.76
 -10  -3   6   23.94    6.15
 -10   3  -6   39.33    8.69
 -10  -3  -6   28.92    7.18
 -10  -3   7  199.63   15.00
 -10   3  -7  194.87   13.98
 -10   3  -7  217.42   18.27
 -10  -3  -7  196.99   16.64
 -10   3   7  202.48   17.41
 -10  -3   7  200.30   16.53
 -10   3   8   21.39    6.70
 -10  -3   8   22.09    6.16
 -10  -3   8   23.41    5.85
 -10   3  -8   24.58    6.06
 -10  -3  -8   33.73    7.79
 -10   3   9    5.18    4.56
 -10  -3   9    3.87    3.78
 -10  -3   9    8.56    3.81
 -10   3  -9    2.00    3.94
 -10  -3  -9    2.73    3.96
 -10   3  -9    4.58    3.47
 -10   3  10   -1.38    3.75
 -10  -3  10    2.43    3.16
 -10  -3  10    5.11    3.67
 -10   3 -10    0.99    3.78
 -10  -3 -10   -0.89    4.28
 -10   3 -10    4.94    3.99
 -10   3  11   31.30    7.80
 -10  -3  11   26.15    6.38
 -10  -3  11   30.66    6.34
 -10   3 -11   29.91    7.10
 -10  -3 -11   29.75    7.31
 -10   3 -11   37.35    7.20
  10   3 -11   39.60    8.52
 -10   3  12    0.64    3.46
 -10  -3  12   -2.90    3.51
 -10   3 -12   -0.44    5.08
 -10  -3 -12    5.54    5.23
  10   3 -12    8.91    5.57
 -10   3 -12   -2.09    3.04
 -10   3 -13   43.01    8.80
 -10  -3 -13   26.86    7.25
  10   3 -13   29.25    7.87
 -10   3 -13   35.82    7.29
  10   3 -14   11.47    5.54
 -10   3 -14    1.59    2.91
 -10   3 -15   27.36    7.03
 -10   3 -16    5.81    4.57
 -10   3 -17    3.62    3.24
 -10   4   0    9.46    4.63
 -10  -4   0    3.00    3.08
 -10   4  -1   19.79    5.86
 -10  -4  -1   19.72    5.79
 -10   4   1   25.29    6.71
 -10  -4   1   22.27    5.15
 -10  -4   2    1.80    3.72
 -10  -4   2    1.74    3.42
 -10   4  -2   -4.86    4.56
 -10  -4  -2   -4.54    4.03
 -10   4   2   -6.90    5.65
 -10   4   3   -3.42    3.99
 -10  -4   3    4.77    4.29
 -10  -4   3    2.15    3.68
 -10   4  -3   -1.91    3.01
 -10  -4  -3   -1.75    3.59
 -10   4   4    9.37    5.25
 -10  -4   4    9.24    3.90
 -10  -4   4    9.04    4.41
 -10   4  -4    3.45    3.42
 -10  -4  -4    9.79    4.15
 -10   4   5   -5.70    4.38
 -10  -4   5    0.89    2.73
 -10  -4   5   -3.43    3.60
 -10   4  -5    0.68    2.89
 -10  -4  -5    2.65    3.36
 -10   4   6    7.80    4.64
 -10  -4   6    8.52    3.87
 -10  -4   6    7.56    4.60
 -10   4  -6    5.48    4.19
 -10  -4  -6   10.71    5.05
 -10   4   7   63.71   10.08
 -10  -4   7   62.29    9.19
 -10  -4   7   61.14    8.82
 -10   4  -7   61.51   10.37
 -10  -4  -7   66.10    9.86
 -10   4   8    5.84    4.98
 -10  -4   8    1.67    2.46
 -10  -4   8    6.25    3.85
 -10   4  -8   11.91    6.26
 -10   4   9    5.96    3.79
 -10  -4   9    4.48    3.97
 -10  -4   9    7.20    3.93
 -10   4  -9   -0.91    3.38
 -10  -4  -9   11.34    5.39
 -10   4  10    0.64    3.77
 -10  -4  10   -3.62    3.56
 -10  -4  10    1.21    2.54
 -10   4 -10    4.52    4.45
 -10  -4 -10    6.25    4.51
 -10   4  11    9.32    5.06
 -10  -4  11    2.72    2.85
 -10  -4  11    4.14    3.25
 -10   4 -11    9.70    4.84
 -10  -4 -11   -2.89    4.48
  10   4 -11   16.65    6.38
 -10  -4  12    2.26    2.91
 -10   4 -12    1.38    4.04
 -10  -4 -12    9.57    5.75
  10   4 -12   16.72    6.44
 -10   4 -13   41.45    9.00
  10   4 -13   44.14    8.97
 -10   4 -14   -0.42    3.23
 -10   4 -15    0.86    3.13
 -10   4 -16   -4.82    4.86
 -10   4 -17    7.43    4.87
 -10   5   0   52.81    9.63
 -10  -5   0   55.64    8.59
 -10  -5   1   48.86    8.01
 -10  -5   1   65.52    9.87
 -10   5  -1   39.50    8.42
 -10  -5  -1   41.65    7.59
 -10   5   1   33.84    7.49
 -10  -5   2   14.43    5.03
 -10  -5   2   13.58    5.81
 -10   5  -2    2.43    3.71
 -10  -5  -2    2.98    2.99
 -10   5   2   -7.64    6.00
 -10   5   3   23.61    6.34
 -10  -5   3    9.69    4.17
 -10  -5   3   10.78    5.08
 -10   5  -3   12.70    5.03
 -10  -5  -3   10.76    4.58
 -10   5   4   74.10   11.23
 -10  -5   4   66.45    9.66
 -10  -5   4   64.36    9.05
 -10   5  -4   74.47   10.87
 -10  -5  -4   65.05    9.33
 -10   5   5    3.75    3.68
 -10  -5   5    0.72    2.57
 -10  -5   5   -1.13    3.40
 -10   5  -5    3.07    4.18
 -10  -5  -5    3.81    3.60
 -10   5   6   -1.14    4.35
 -10  -5   6    0.10    3.28
 -10  -5   6    1.94    2.73
 -10   5  -6    2.11    3.72
 -10  -5  -6   -1.49    3.55
 -10   5   7   -1.89    3.27
 -10  -5   7   -3.07    2.98
 -10  -5   7   -3.32    4.09
 -10   5  -7    7.36    5.38
 -10  -5  -7    3.36    3.88
 -10   5   8   34.91    8.06
 -10  -5   8   27.28    6.33
 -10  -5   8   25.32    6.11
 -10   5  -8   28.62    7.00
 -10  -5  -8   20.05    5.80
 -10   5  -8   31.95    7.86
 -10  -5  -8   35.00    7.12
 -10   5   9   14.65    5.69
 -10  -5   9   17.71    5.38
 -10  -5   9   19.87    5.98
 -10   5  -9   18.20    5.78
 -10  -5  -9    8.32    4.19
 -10   5  -9   20.91    6.80
 -10  -5  -9   20.25    6.08
 -10  -5  10   79.22   10.55
 -10   5 -10   85.56   11.30
 -10  -5 -10   82.06   11.13
 -10   5  10   94.28   12.76
 -10  -5  10   84.84   10.95
 -10  -5 -10   88.46   11.32
 -10  -5  11   11.86    5.40
 -10   5 -11    1.84    3.30
 -10  -5 -11    4.17    3.06
  10   5 -11   14.17    6.04
 -10  -5  12    1.43    2.94
 -10   5 -12    3.17    4.20
 -10  -5 -12   -6.78    4.99
 -10  -5  13    0.00    2.82
 -10   5 -13   10.72    5.77
 -10  -5 -13   -5.08    4.47
  10   5 -13    4.52    4.13
 -10  -5  14   28.84    6.73
 -10  -5 -14   23.22    6.08
 -10  -6   0   76.36   11.15
 -10  -6   0   80.48    9.93
 -10   6   0   71.35   10.80
 -10  -6   1    3.86    3.67
 -10  -6   1    3.86    4.57
 -10   6  -1    2.85    4.29
 -10   6   1   -4.12    4.81
 -10  -6  -1   -0.27    3.24
 -10   6   2    0.18    4.27
 -10  -6   2    5.55    3.00
 -10  -6   2   10.91    5.28
 -10   6  -2    0.85    4.61
 -10  -6  -2    4.74    3.29
 -10   6   3    4.23    3.43
 -10  -6   3    2.65    2.90
 -10  -6   3    5.37    4.38
  10  -6  -3   -2.66    3.85
 -10   6  -3   -2.94    4.78
 -10  -6  -3    0.36    3.09
 -10   6   4   31.08    7.48
 -10  -6   4   31.45    6.63
 -10  -6   4   36.56    8.06
  10  -6  -4   24.59    5.81
 -10  -6  -4   20.78    5.71
 -10   6  -4   29.49    7.21
 -10  -6  -4   32.20    6.58
 -10   6   5    3.45    3.78
 -10  -6   5    5.63    3.43
 -10  -6   5    7.81    4.65
 -10  -6  -5   -5.71    5.21
  10  -6  -5    0.06    3.59
 -10   6  -5    4.56    3.77
 -10  -6  -5    0.23    3.08
 -10   6   6   11.67    5.55
 -10  -6   6    8.08    3.54
 -10  -6   6    6.83    4.55
 -10  -6  -6    0.27    3.40
  10  -6  -6   -5.13    4.76
 -10   6  -6    7.34    5.31
 -10  -6  -6   12.16    4.62
 -10   6   7   -4.60    3.91
 -10  -6   7    1.64    2.75
 -10  -6   7    1.75    3.36
 -10  -6  -7   -2.39    4.48
 -10   6  -7    6.38    5.40
 -10  -6  -7    4.38    3.75
 -10   6   8   14.27    5.83
 -10  -6   8   12.75    4.35
 -10  -6   8   17.19    5.89
 -10   6  -8   14.59    5.50
 -10  -6  -8   11.29    4.47
 -10   6  -8   18.85    6.37
 -10  -6  -8   24.96    6.41
 -10   6   9    9.63    5.13
 -10  -6   9    4.29    3.81
 -10   6  -9    2.03    3.50
 -10  -6  -9    7.35    4.81
 -10   6  -9   10.46    5.69
 -10  -6  -9   16.57    5.61
 -10  -6  10   76.99   10.85
 -10   6 -10   71.10   10.19
 -10  -6 -10   77.16   10.91
 -10  -6  11   -0.96    3.13
 -10   6 -11   -5.08    3.51
 -10  -6 -11   -2.18    3.49
 -10  -6  12   -3.17    3.32
 -10  -6 -12   -5.26    3.95
 -10   6 -12    1.55    3.72
  10   6 -12    4.72    4.73
 -10  -6  13    4.57    3.72
 -10  -6 -13   -2.64    4.05
  10   6 -13    1.68    4.07
 -10  -6  14    1.95    3.31
 -10  -6 -14   -8.17    4.87
 -10  -7   0   18.07    6.86
 -10   7   0   11.17    5.55
 -10  -7  -1  100.86   12.72
 -10  -7   1   81.92   11.52
 -10  -7  -1   81.88   11.58
 -10   7  -1   78.30   11.20
 -10   7   1   76.32   11.29
 -10   7   2   16.82    6.13
 -10  -7   2   23.14    7.24
 -10  -7  -2   14.82    6.08
 -10   7  -2   12.48    5.20
 -10   7   3   41.51    8.74
 -10  -7   3   29.03    7.39
 -10  -7  -3   34.88    7.67
 -10   7  -3   33.61    7.50
 -10   7   4    9.59    5.21
 -10  -7   4    7.01    4.41
 -10  -7  -4    3.62    3.46
  10  -7  -4    4.99    3.75
 -10   7  -4   -0.77    4.53
 -10   7   5   -6.85    4.83
 -10  -7   5    3.17    3.53
 -10  -7  -5   -6.75    5.64
  10  -7  -5   -2.03    4.21
 -10   7  -5   -3.45    3.78
 -10   7   6   -2.93    3.51
 -10  -7   6    0.74    3.63
 -10  -7  -6   -0.86    3.87
  10  -7  -6    0.81    3.69
 -10   7  -6   -2.32    3.91
 -10   7   7   29.02    7.28
 -10  -7   7   29.48    7.04
  10  -7  -7   21.33    6.36
 -10   7  -7   32.58    8.38
 -10  -7   8    0.37    3.37
 -10   7  -8   -0.57    3.39
  10  -7  -8   -3.38    3.57
 -10  -7   9    4.77    4.81
 -10   7  -9   -2.86    3.84
  10  -7  -9   -4.17    4.83
 -10   7 -10    7.55    4.49
 -10   7 -11   57.30    9.50
 -10   8   0   20.83    6.68
 -10   8   1   12.99    5.45
 -10   8  -1    5.99    4.61
 -10   8   2    7.79    4.73
 -10   8  -2   -3.03    4.64
 -10   8   3    2.20    3.88
 -10   8  -3   -6.81    5.03
 -10   8   4   -3.64    3.71
 -10   8  -4   -3.88    4.71
  10  -8  -5    8.83    4.77
  10  -8  -6   -0.46    4.16
  10  -8  -7   55.23    9.68
 -11   0   0   -2.55    3.79
 -11   0  -1   -1.77    3.65
 -11   0   1   -0.16    3.68
 -11   0  -2   69.52   10.46
 -11   0   2   56.66    9.47
 -11   0   3    4.42    4.39
 -11   0  -3    0.65    3.59
 -11   0   4   35.88    7.74
 -11   0  -4   33.13    7.62
 -11   0   5    0.56    3.01
 -11   0  -5    8.50    4.58
 -11   0   6   22.95    6.72
 -11   0  -6   23.76    6.88
 -11   0   7   -3.14    4.27
 -11   0  -7    6.57    5.49
 -11   0   8    3.88    3.66
 -11   0  -8    6.91    4.32
 -11   0  -8   11.07    5.46
 -11   0  -9   -2.51    3.28
 -11   0 -10   38.02    7.68
 -11   0 -11    9.43    5.43
 -11   0 -12    6.71    4.36
 -11   0 -13   11.44    5.41
 -11   1   0   -9.56    5.69
 -11  -1   0   -7.71    5.05
 -11   1  -1   -4.42    4.95
 -11  -1  -1   -7.96    5.54
 -11   1   1   -2.95    3.58
 -11  -1   1  -11.01    6.30
 -11  -1   2    0.93    3.56
 -11   1  -2   -1.58    4.84
 -11  -1  -2   -0.70    3.73
 -11   1   2    4.61    3.44
 -11   1   3    4.05    4.21
 -11  -1   3   -1.90    3.13
 -11   1  -3    1.22    3.66
 -11  -1  -3   -5.05    4.75
 -11   1   4    4.40    4.36
 -11  -1   4    9.82    5.27
 -11  -1   4   10.11    4.09
 -11   1  -4   10.36    5.55
 -11  -1  -4    7.98    4.55
 -11   1   5   -0.93    3.53
 -11  -1   5    1.37    3.59
 -11   1  -5    2.96    4.44
 -11  -1  -5   10.48    4.99
 -11   1   6    4.39    3.87
 -11  -1   6   13.68    5.15
 -11   1  -6   15.35    5.91
 -11  -1  -6   23.28    7.04
 -11   1   7    5.09    4.10
 -11  -1   7    4.82    3.31
 -11   1  -7    2.05    3.41
 -11   1  -7    8.25    5.29
 -11  -1  -7    9.30    5.32
 -11  -1   8   12.17    5.48
 -11   1  -8   -2.28    3.51
 -11  -1  -8    8.01    4.95
 -11  -1   9    3.12    4.05
 -11  -1  -9   -2.66    4.08
 -11   1  -9   -1.73    3.00
 -11  -1 -10   33.09    7.90
 -11   1 -10   18.93    6.15
 -11  -1 -11    9.82    5.64
 -11   1 -11    5.29    3.51
 -11  -1 -12    8.82    5.20
 -11   1 -12    9.46    4.75
 -11   1 -13   13.34    5.54
 -11   2   0   -8.94    5.64
 -11  -2   0   -7.31    5.27
 -11   2  -1   25.06    7.36
 -11  -2  -1   17.61    5.29
 -11   2   1   17.78    5.57
 -11  -2   1   11.63    4.73
 -11  -2   2   36.41    7.29
 -11   2  -2   50.32    9.53
 -11  -2  -2   34.92    7.57
 -11   2   2   36.15    7.87
 -11   2   3    5.21    4.52
 -11  -2   3   -3.44    3.60
 -11  -2   3    6.82    3.72
 -11   2  -3   -3.85    5.52
 -11  -2  -3   -0.35    3.13
 -11   2   4   14.50    5.85
 -11  -2   4   15.45    5.78
 -11  -2   4   15.85    5.19
 -11   2  -4    1.85    3.81
 -11  -2  -4   13.89    5.26
 -11   2   5   25.38    7.22
 -11  -2   5   27.72    7.11
 -11  -2   5   25.25    5.91
 -11   2  -5   24.86    6.91
 -11  -2  -5   17.91    5.82
 -11   2   6    1.03    3.34
 -11  -2   6    0.15    2.81
 -11  -2   6    0.63    2.61
 -11   2  -6   -0.54    3.75
 -11  -2  -6    0.85    3.06
 -11  -2   7   -5.14    4.30
 -11  -2  -7    4.49    4.51
 -11  -2   8    3.30    3.39
 -11  -2  -8   20.75    6.85
 -11  -2   9   31.18    7.63
 -11  -2  -9   37.43    8.63
 -11  -2 -10   33.53    7.83
 -11   2 -10   20.06    6.18
 -11  -2 -11   48.63    9.20
 -11   2 -11   45.04    8.32
 -11   2 -12    8.70    4.56
 -11   2 -13   36.60    7.77
 -11   2 -14    2.03    3.74
 -11   3   0   -9.72    4.98
 -11  -3   0  -13.24    6.03
 -11  -3   1    1.45    3.27
 -11   3  -1    3.19    3.52
 -11  -3  -1   -4.40    4.61
 -11   3   1    5.70    3.87
 -11  -3   2    2.95    3.06
 -11   3  -2   -3.57    4.28
 -11  -3  -2   -2.44    2.95
 -11   3   2   -4.78    5.37
 -11   3   3    5.57    4.63
 -11  -3   3   -0.02    3.19
 -11  -3   3   -1.91    3.61
 -11   3  -3    2.08    3.54
 -11  -3  -3    1.50    3.48
 -11   3   4    1.41    4.07
 -11  -3   4    2.82    3.65
 -11  -3   4    0.34    3.18
 -11   3  -4    2.45    4.01
 -11  -3  -4   -2.19    3.57
 -11   3   5   29.03    7.68
 -11  -3   5   29.80    6.98
 -11  -3   5   21.64    5.86
 -11   3  -5   32.52    8.41
 -11  -3  -5   20.91    6.21
 -11  -3   6    0.17    2.96
 -11  -3   6    3.30    3.41
 -11  -3  -6    7.91    4.56
 -11  -3   7    4.51    3.88
 -11  -3   7    8.99    4.30
 -11  -3  -7   -1.16    3.31
 -11  -3   8    4.73    3.57
 -11  -3  -8    9.75    4.91
 -11  -3   9    2.62    2.91
 -11  -3  -9    9.30    5.45
 -11  -3  10   14.21    5.82
 -11   4   0   -4.06    5.17
 -11  -4   0   -2.52    3.59
 -11  -4   1   68.07   10.33
 -11   4  -1   52.02    9.32
 -11  -4  -1   54.93    9.04
 -11   4   1   57.94    9.91
 -11  -4   2    9.92    4.71
 -11  -4   2    6.30    4.15
 -11  -4  -2    9.63    4.69
 -11  -4   3    3.71    3.79
 -11  -4   3    3.96    3.17
 -11  -4  -3   -3.81    4.21
 -11  -4   4    6.14    3.69
 -11  -4   4    1.59    3.48
 -11  -4  -4    5.44    4.43
 -11  -4   5   -5.30    4.17
 -11  -4   5   -0.03    3.14
 -11  -4  -5   -0.35    3.96
 -11  -4   6    0.49    2.33
 -11  -4   6   -2.23    4.07
 -11  -4  -6   -4.40    4.09
 -11  -4   7   -5.32    4.07
 -11  -4   7   -0.71    3.11
 -11  -4  -7    5.15    4.21
 -11  -4   8    4.58    3.83
 -11  -4   8    9.08    4.66
 -11  -4  -8   12.95    5.84
 -11  -4   9    8.17    4.55
 -11  -4   9    3.77    3.63
 -11  -4  -9   12.86    5.83
 -11  -4  10   52.41    9.12
 -11  -4 -10   50.86    9.49
 -11  -5   0    4.24    2.72
 -11  -5   1   22.36    6.12
 -11  -5   1   24.76    6.82
 -11  -5  -1   17.18    5.39
 -11  -5   2   55.44    9.02
 -11  -5   2   53.66    9.30
 -11  -5  -2   37.79    7.57
 -11  -5   3    6.53    3.57
 -11  -5   3   -0.86    2.77
 -11  -5  -3   -7.45    4.91
 -11  -5   4    4.18    3.02
 -11  -5  -4    9.32    3.81
 -11  -5   5   -2.63    3.02
 -11  -5   5   -0.52    3.83
 -11  -5  -5    0.38    2.85
 -11  -5   6   12.08    4.64
 -11  -5   6   18.79    5.60
 -11  -5  -6    9.05    4.01
 -11  -5   7   -8.95    4.75
 -11  -5   7    0.74    3.11
 -11  -5  -7    0.25    3.28
 -11  -5   8    1.98    3.01
 -11  -5   8    1.96    3.28
 -11  -5  -8    2.91    2.97
 -11  -5   9    0.23    2.37
 -11  -5   9    2.69    3.26
 -11  -5  -9    4.56    4.03
 -11  -5  10   -7.94    4.86
 -11  -5  10   -3.85    4.03
 -11  -5 -10    3.82    3.64
  11  -6  -7  -12.61    5.82
 -12  -2   2    4.44    3.86
 -12  -3   2    3.09    3.50
 -12  -3   3    2.93    3.69
 -12  -3   4   12.19    5.09
  
TITL smz_fiiRT in Pbca
REM Pbca (#61 in standard setting)
CELL 0.71073   9.134868  11.686847  22.865997  90.0000  90.0000  90.0000
ZERR    6.00   0.000341   0.000433   0.000845   0.0000   0.0000   0.0000
LATT  1
SYMM -x+1/2,-y, z+1/2
SYMM -x, y+1/2,-z+1/2
SYMM  x+1/2,-y+1/2,-z
SFAC C H N O S
UNIT 90.00 90.00 18.00 12.00 6.00
TREF
HKLF 4
END
_computing_structure_solution     'SHELXT 2014/4 (Sheldrick, 2014)'
;
_shelx_hkl_checksum              52221
loop_
_space_group_symop_operation_xyz
'x, y, z'
'-x+1/2, -y, z+1/2'
'-x, y+1/2, -z+1/2'
'x+1/2, -y+1/2, -z'
'-x, -y, -z'
'x-1/2, y, -z-1/2'
'x, -y-1/2, z-1/2'
'-x-1/2, y-1/2, z'
loop_
_atom_site_label
_atom_site_type_symbol
_atom_site_fract_x
_atom_site_fract_y
_atom_site_fract_z
_atom_site_U_iso_or_equiv
_atom_site_adp_type
_atom_site_occupancy
_atom_site_site_symmetry_order
_atom_site_calc_flag
_atom_site_refinement_flags_posn
_atom_site_refinement_flags_adp
_atom_site_refinement_flags_occupancy
_atom_site_disorder_assembly
_atom_site_disorder_group
S1 S 0.33324(5) 0.34684(4) 0.38982(2) 0.03616(14) Uani 1 1 d . . . . .
O2 O 0.19861(14) 0.39730(13) 0.40954(6) 0.0451(3) Uani 1 1 d . . . . .
O1 O 0.34289(17) 0.22543(11) 0.38628(6) 0.0494(4) Uani 1 1 d . . . . .
N4 N 0.66596(17) 0.42642(14) 0.48540(7) 0.0404(4) Uani 1 1 d . . . . .
N3 N 0.65546(18) 0.28651(14) 0.40935(8) 0.0421(4) Uani 1 1 d . . . . .
N2 N 0.45154(18) 0.39466(15) 0.43771(7) 0.0392(4) Uani 1 1 d . . . . .
N1 N 0.4576(3) 0.5332(2) 0.15568(9) 0.0593(6) Uani 1 1 d . . . . .
C1 C 0.3771(2) 0.40463(16) 0.32203(8) 0.0366(4) Uani 1 1 d . . . . .
C2 C 0.4496(3) 0.33917(19) 0.28066(10) 0.0505(5) Uani 1 1 d . . . . .
H2 H 0.4787 0.2650 0.2898 0.066 Uiso 1 1 calc R U . . .
C3 C 0.4786(3) 0.38339(18) 0.22621(10) 0.0529(6) Uani 1 1 d . . . . .
H3 H 0.5288 0.3391 0.1990 0.069 Uiso 1 1 calc R U . . .
C4 C 0.4342(2) 0.49360(17) 0.21105(9) 0.0435(5) Uani 1 1 d . . . . .
C5 C 0.3620(2) 0.55901(16) 0.25356(10) 0.0457(5) Uani 1 1 d . . . . .
H5 H 0.3322 0.6331 0.2446 0.059 Uiso 1 1 calc R U . . .
C6 C 0.3347(2) 0.51524(16) 0.30832(9) 0.0413(4) Uani 1 1 d . . . . .
H6 H 0.2877 0.5600 0.3362 0.054 Uiso 1 1 calc R U . . .
C7 C 0.5979(2) 0.36662(15) 0.44353(8) 0.0349(4) Uani 1 1 d . . . . .
C8 C 0.8072(2) 0.4015(2) 0.49264(10) 0.0481(5) Uani 1 1 d . . . . .
H8 H 0.8596 0.4410 0.5211 0.063 Uiso 1 1 calc R U . . .
C9 C 0.8781(2) 0.3209(2) 0.46033(10) 0.0491(5) Uani 1 1 d . . . . .
H9 H 0.9768 0.3052 0.4663 0.064 Uiso 1 1 calc R U . . .
C10 C 0.7986(2) 0.26345(17) 0.41841(9) 0.0449(5) Uani 1 1 d . . . . .
C11 C 0.8655(3) 0.1709(2) 0.38212(13) 0.0674(7) Uani 1 1 d . . . . .
H11A H 0.8204 0.0991 0.3915 0.088 Uiso 1 1 calc R U . . .
H11B H 0.9686 0.1667 0.3901 0.088 Uiso 1 1 calc R U . . .
H11C H 0.8507 0.1876 0.3414 0.088 Uiso 1 1 calc R U . . .
H1N2 H 0.419(3) 0.445(2) 0.4591(11) 0.051(7) Uiso 1 1 d . . . . .
H1N1 H 0.516(3) 0.494(2) 0.1348(13) 0.066(8) Uiso 1 1 d . . . . .
H2N1 H 0.448(3) 0.603(3) 0.1484(13) 0.078(10) Uiso 1 1 d . . . . .
loop_
_atom_site_aniso_label
_atom_site_aniso_U_11
_atom_site_aniso_U_22
_atom_site_aniso_U_33
_atom_site_aniso_U_23
_atom_site_aniso_U_13
_atom_site_aniso_U_12
S1 0.0364(3) 0.0391(3) 0.0330(2) -0.00329(18) -0.00036(18) -0.00455(18)
O2 0.0334(7) 0.0625(9) 0.0394(8) -0.0026(7) 0.0009(6) -0.0033(6)
O1 0.0657(10) 0.0378(8) 0.0446(8) -0.0019(6) -0.0003(7) -0.0103(7)
N4 0.0350(8) 0.0478(9) 0.0384(9) -0.0034(7) -0.0033(7) 0.0036(7)
N3 0.0426(9) 0.0430(9) 0.0408(9) -0.0020(7) 0.0035(7) 0.0067(7)
N2 0.0347(9) 0.0439(9) 0.0391(9) -0.0129(7) -0.0033(7) 0.0048(7)
N1 0.0780(15) 0.0533(12) 0.0465(12) 0.0079(9) 0.0199(10) 0.0036(11)
C1 0.0375(10) 0.0380(9) 0.0344(9) -0.0035(7) 0.0006(7) -0.0020(7)
C2 0.0633(14) 0.0423(11) 0.0458(12) 0.0012(9) 0.0104(10) 0.0127(10)
C3 0.0666(15) 0.0472(12) 0.0450(12) -0.0025(9) 0.0189(11) 0.0107(10)
C4 0.0465(11) 0.0441(11) 0.0400(11) 0.0001(8) 0.0069(8) -0.0058(8)
C5 0.0561(12) 0.0334(9) 0.0476(11) 0.0008(9) 0.0083(9) 0.0002(8)
C6 0.0462(11) 0.0357(9) 0.0422(10) -0.0074(8) 0.0088(8) -0.0018(8)
C7 0.0363(9) 0.0364(9) 0.0322(9) 0.0025(7) 0.0019(7) 0.0012(7)
C8 0.0399(11) 0.0608(13) 0.0436(12) 0.0004(10) -0.0053(9) 0.0023(9)
C9 0.0352(11) 0.0624(13) 0.0496(12) 0.0096(10) 0.0020(9) 0.0087(9)
C10 0.0440(11) 0.0455(11) 0.0451(11) 0.0085(9) 0.0110(9) 0.0093(9)
C11 0.0614(16) 0.0637(15) 0.0769(18) -0.0072(13) 0.0161(13) 0.0199(12)
loop_
_atom_type_symbol
_atom_type_description
_atom_type_scat_dispersion_real
_atom_type_scat_dispersion_imag
_atom_type_scat_source
C C 0.0033 0.0016 'International Tables Vol C Tables 4.2.6.8 and 6.1.1.4'
H H 0.0000 0.0000 'International Tables Vol C Tables 4.2.6.8 and 6.1.1.4'
N N 0.0061 0.0033 'International Tables Vol C Tables 4.2.6.8 and 6.1.1.4'
O O 0.0106 0.0060 'International Tables Vol C Tables 4.2.6.8 and 6.1.1.4'
S S 0.1246 0.1234 'International Tables Vol C Tables 4.2.6.8 and 6.1.1.4'
loop_
_geom_angle_atom_site_label_1
_geom_angle_atom_site_label_2
_geom_angle_atom_site_label_3
_geom_angle
_geom_angle_site_symmetry_1
_geom_angle_site_symmetry_3
O2 S1 O1 118.68(9) . .
O2 S1 N2 102.42(9) . .
O1 S1 N2 109.71(9) . .
O2 S1 C1 108.52(9) . .
O1 S1 C1 108.81(9) . .
N2 S1 C1 108.18(9) . .
C8 N4 C7 115.13(18) . .
C7 N3 C10 115.70(18) . .
C7 N2 S1 128.44(14) . .
C7 N2 H1N2 117.6(17) . .
S1 N2 H1N2 113.8(17) . .
C4 N1 H1N1 115.9(19) . .
C4 N1 H2N1 120(2) . .
H1N1 N1 H2N1 119(3) . .
C2 C1 C6 119.62(18) . .
C2 C1 S1 120.32(15) . .
C6 C1 S1 120.02(15) . .
C3 C2 C1 120.24(19) . .
C3 C2 H2 119.9 . .
C1 C2 H2 119.9 . .
C2 C3 C4 121.10(19) . .
C2 C3 H3 119.4 . .
C4 C3 H3 119.4 . .
N1 C4 C5 122.2(2) . .
N1 C4 C3 119.9(2) . .
C5 C4 C3 117.93(19) . .
C6 C5 C4 120.93(18) . .
C6 C5 H5 119.5 . .
C4 C5 H5 119.5 . .
C5 C6 C1 120.16(18) . .
C5 C6 H6 119.9 . .
C1 C6 H6 119.9 . .
N3 C7 N4 127.21(18) . .
N3 C7 N2 119.57(17) . .
N4 C7 N2 113.22(16) . .
N4 C8 C9 123.0(2) . .
N4 C8 H8 118.5 . .
C9 C8 H8 118.5 . .
C8 C9 C10 117.6(2) . .
C8 C9 H9 121.2 . .
C10 C9 H9 121.2 . .
N3 C10 C9 121.34(19) . .
N3 C10 C11 117.1(2) . .
C9 C10 C11 121.6(2) . .
C10 C11 H11A 109.5 . .
C10 C11 H11B 109.5 . .
H11A C11 H11B 109.5 . .
C10 C11 H11C 109.5 . .
H11A C11 H11C 109.5 . .
H11B C11 H11C 109.5 . .
loop_
_geom_bond_atom_site_label_1
_geom_bond_atom_site_label_2
_geom_bond_distance
_geom_bond_site_symmetry_2
S1 O2 1.4365(14) .
S1 O1 1.4239(14) .
S1 N2 1.6369(16) .
S1 C1 1.7374(19) .
N4 C8 1.333(3) .
N4 C7 1.339(2) .
N3 C7 1.328(2) .
N3 C10 1.351(3) .
N2 C7 1.383(2) .
N2 H1N2 0.82(2) .
N1 C4 1.365(3) .
N1 H1N1 0.85(3) .
N1 H2N1 0.83(3) .
C1 C2 1.385(3) .
C1 C6 1.385(3) .
C2 C3 1.374(3) .
C2 H2 0.9300 .
C3 C4 1.394(3) .
C3 H3 0.9300 .
C4 C5 1.401(3) .
C5 C6 1.375(3) .
C5 H5 0.9300 .
C6 H6 0.9300 .
C8 C9 1.361(3) .
C8 H8 0.9300 .
C9 C10 1.378(3) .
C9 H9 0.9300 .
C10 C11 1.494(3) .
C11 H11A 0.9600 .
C11 H11B 0.9600 .
C11 H11C 0.9600 .
loop_
_geom_torsion_atom_site_label_1
_geom_torsion_atom_site_label_2
_geom_torsion_atom_site_label_3
_geom_torsion_atom_site_label_4
_geom_torsion
_geom_torsion_site_symmetry_1
_geom_torsion_site_symmetry_2
_geom_torsion_site_symmetry_3
_geom_torsion_site_symmetry_4
O2 S1 N2 C7 174.21(17) . . . .
O1 S1 N2 C7 47.3(2) . . . .
C1 S1 N2 C7 -71.29(19) . . . .
O2 S1 C1 C2 -147.46(18) . . . .
O1 S1 C1 C2 -17.0(2) . . . .
N2 S1 C1 C2 102.13(19) . . . .
O2 S1 C1 C6 30.13(19) . . . .
O1 S1 C1 C6 160.58(16) . . . .
N2 S1 C1 C6 -80.28(18) . . . .
C6 C1 C2 C3 -0.4(3) . . . .
S1 C1 C2 C3 177.24(18) . . . .
C1 C2 C3 C4 -1.0(4) . . . .
C2 C3 C4 N1 -176.5(2) . . . .
C2 C3 C4 C5 1.5(3) . . . .
N1 C4 C5 C6 177.4(2) . . . .
C3 C4 C5 C6 -0.6(3) . . . .
C4 C5 C6 C1 -0.7(3) . . . .
C2 C1 C6 C5 1.2(3) . . . .
S1 C1 C6 C5 -176.37(16) . . . .
C10 N3 C7 N4 0.2(3) . . . .
C10 N3 C7 N2 -179.22(17) . . . .
C8 N4 C7 N3 0.2(3) . . . .
C8 N4 C7 N2 179.66(18) . . . .
S1 N2 C7 N3 -4.1(3) . . . .
S1 N2 C7 N4 176.37(15) . . . .
C7 N4 C8 C9 -0.3(3) . . . .
N4 C8 C9 C10 0.1(3) . . . .
C7 N3 C10 C9 -0.5(3) . . . .
C7 N3 C10 C11 177.95(19) . . . .
C8 C9 C10 N3 0.4(3) . . . .
C8 C9 C10 C11 -178.0(2) . . . .
